CM Length L in mtr. = 0.3
CM Radius R1 in cm. = 5
CM Radius R2 in cm. = 5
CM Start angle A1 = 0
CM Stop angle A2 = 360
CM Straight sections = 6
CM Circular sections = 20
CM Radial sections = 6
CM Rotate X, Y, Z = 90, 0, 0
CM Move X, Y, Z = 0, 0, 0
CE
GW	1	1	.05	-.15	0	.05	-.1	0	.001896
GW	2	1	.05	-.1	0	.05	-.05	0	.001896
GW	3	1	.05	-.05	0	.05	0	0	.001896
GW	4	1	.05	0	0	.05	.05	0	.001896
GW	5	1	.05	.05	0	.05	.1	0	.001896
GW	6	1	.05	.1	0	.05	.15	0	.001896
GW	7	1	.047553	-.15	-.015451	.047553	-.1	-.015451	.001896
GW	8	1	.047553	-.1	-.015451	.047553	-.05	-.015451	.001896
GW	9	1	.047553	-.05	-.015451	.047553	0	-.015451	.001896
GW	10	1	.047553	0	-.015451	.047553	.05	-.015451	.001896
GW	11	1	.047553	.05	-.015451	.047553	.1	-.015451	.001896
GW	12	1	.047553	.1	-.015451	.047553	.15	-.015451	.001896
GW	13	1	.040451	-.15	-.029389	.040451	-.1	-.029389	.001896
GW	14	1	.040451	-.1	-.029389	.040451	-.05	-.029389	.001896
GW	15	1	.040451	-.05	-.029389	.040451	0	-.029389	.001896
GW	16	1	.040451	0	-.029389	.040451	.05	-.029389	.001896
GW	17	1	.040451	.05	-.029389	.040451	.1	-.029389	.001896
GW	18	1	.040451	.1	-.029389	.040451	.15	-.029389	.001896
GW	19	1	.029389	-.15	-.040451	.029389	-.1	-.040451	.001896
GW	20	1	.029389	-.1	-.040451	.029389	-.05	-.040451	.001896
GW	21	1	.029389	-.05	-.040451	.029389	0	-.040451	.001896
GW	22	1	.029389	0	-.040451	.029389	.05	-.040451	.001896
GW	23	1	.029389	.05	-.040451	.029389	.1	-.040451	.001896
GW	24	1	.029389	.1	-.040451	.029389	.15	-.040451	.001896
GW	25	1	.015451	-.15	-.047553	.015451	-.1	-.047553	.001896
GW	26	1	.015451	-.1	-.047553	.015451	-.05	-.047553	.001896
GW	27	1	.015451	-.05	-.047553	.015451	0	-.047553	.001896
GW	28	1	.015451	0	-.047553	.015451	.05	-.047553	.001896
GW	29	1	.015451	.05	-.047553	.015451	.1	-.047553	.001896
GW	30	1	.015451	.1	-.047553	.015451	.15	-.047553	.001896
GW	31	1	0	-.15	-.05	0	-.1	-.05	.001896
GW	32	1	0	-.1	-.05	0	-.05	-.05	.001896
GW	33	1	0	-.05	-.05	0	0	-.05	.001896
GW	34	1	0	0	-.05	0	.05	-.05	.001896
GW	35	1	0	.05	-.05	0	.1	-.05	.001896
GW	36	1	0	.1	-.05	0	.15	-.05	.001896
GW	37	1	-.015451	-.15	-.047553	-.015451	-.1	-.047553	.001896
GW	38	1	-.015451	-.1	-.047553	-.015451	-.05	-.047553	.001896
GW	39	1	-.015451	-.05	-.047553	-.015451	0	-.047553	.001896
GW	40	1	-.015451	0	-.047553	-.015451	.05	-.047553	.001896
GW	41	1	-.015451	.05	-.047553	-.015451	.1	-.047553	.001896
GW	42	1	-.015451	.1	-.047553	-.015451	.15	-.047553	.001896
GW	43	1	-.029389	-.15	-.040451	-.029389	-.1	-.040451	.001896
GW	44	1	-.029389	-.1	-.040451	-.029389	-.05	-.040451	.001896
GW	45	1	-.029389	-.05	-.040451	-.029389	0	-.040451	.001896
GW	46	1	-.029389	0	-.040451	-.029389	.05	-.040451	.001896
GW	47	1	-.029389	.05	-.040451	-.029389	.1	-.040451	.001896
GW	48	1	-.029389	.1	-.040451	-.029389	.15	-.040451	.001896
GW	49	1	-.040451	-.15	-.029389	-.040451	-.1	-.029389	.001896
GW	50	1	-.040451	-.1	-.029389	-.040451	-.05	-.029389	.001896
GW	51	1	-.040451	-.05	-.029389	-.040451	0	-.029389	.001896
GW	52	1	-.040451	0	-.029389	-.040451	.05	-.029389	.001896
GW	53	1	-.040451	.05	-.029389	-.040451	.1	-.029389	.001896
GW	54	1	-.040451	.1	-.029389	-.040451	.15	-.029389	.001896
GW	55	1	-.047553	-.15	-.015451	-.047553	-.1	-.015451	.001896
GW	56	1	-.047553	-.1	-.015451	-.047553	-.05	-.015451	.001896
GW	57	1	-.047553	-.05	-.015451	-.047553	0	-.015451	.001896
GW	58	1	-.047553	0	-.015451	-.047553	.05	-.015451	.001896
GW	59	1	-.047553	.05	-.015451	-.047553	.1	-.015451	.001896
GW	60	1	-.047553	.1	-.015451	-.047553	.15	-.015451	.001896
GW	61	1	-.05	-.15	0	-.05	-.1	0	.001896
GW	62	1	-.05	-.1	0	-.05	-.05	0	.001896
GW	63	1	-.05	-.05	0	-.05	0	0	.001896
GW	64	1	-.05	0	0	-.05	.05	0	.001896
GW	65	1	-.05	.05	0	-.05	.1	0	.001896
GW	66	1	-.05	.1	0	-.05	.15	0	.001896
GW	67	1	-.047553	-.15	.015451	-.047553	-.1	.015451	.001896
GW	68	1	-.047553	-.1	.015451	-.047553	-.05	.015451	.001896
GW	69	1	-.047553	-.05	.015451	-.047553	0	.015451	.001896
GW	70	1	-.047553	0	.015451	-.047553	.05	.015451	.001896
GW	71	1	-.047553	.05	.015451	-.047553	.1	.015451	.001896
GW	72	1	-.047553	.1	.015451	-.047553	.15	.015451	.001896
GW	73	1	-.040451	-.15	.029389	-.040451	-.1	.029389	.001896
GW	74	1	-.040451	-.1	.029389	-.040451	-.05	.029389	.001896
GW	75	1	-.040451	-.05	.029389	-.040451	0	.029389	.001896
GW	76	1	-.040451	0	.029389	-.040451	.05	.029389	.001896
GW	77	1	-.040451	.05	.029389	-.040451	.1	.029389	.001896
GW	78	1	-.040451	.1	.029389	-.040451	.15	.029389	.001896
GW	79	1	-.029389	-.15	.040451	-.029389	-.1	.040451	.001896
GW	80	1	-.029389	-.1	.040451	-.029389	-.05	.040451	.001896
GW	81	1	-.029389	-.05	.040451	-.029389	0	.040451	.001896
GW	82	1	-.029389	0	.040451	-.029389	.05	.040451	.001896
GW	83	1	-.029389	.05	.040451	-.029389	.1	.040451	.001896
GW	84	1	-.029389	.1	.040451	-.029389	.15	.040451	.001896
GW	85	1	-.015451	-.15	.047553	-.015451	-.1	.047553	.001896
GW	86	1	-.015451	-.1	.047553	-.015451	-.05	.047553	.001896
GW	87	1	-.015451	-.05	.047553	-.015451	0	.047553	.001896
GW	88	1	-.015451	0	.047553	-.015451	.05	.047553	.001896
GW	89	1	-.015451	.05	.047553	-.015451	.1	.047553	.001896
GW	90	1	-.015451	.1	.047553	-.015451	.15	.047553	.001896
GW	91	1	0	-.15	.05	0	-.1	.05	.001896
GW	92	1	0	-.1	.05	0	-.05	.05	.001896
GW	93	1	0	-.05	.05	0	0	.05	.001896
GW	94	1	0	0	.05	0	.05	.05	.001896
GW	95	1	0	.05	.05	0	.1	.05	.001896
GW	96	1	0	.1	.05	0	.15	.05	.001896
GW	97	1	.015451	-.15	.047553	.015451	-.1	.047553	.001896
GW	98	1	.015451	-.1	.047553	.015451	-.05	.047553	.001896
GW	99	1	.015451	-.05	.047553	.015451	0	.047553	.001896
GW	100	1	.015451	0	.047553	.015451	.05	.047553	.001896
GW	101	1	.015451	.05	.047553	.015451	.1	.047553	.001896
GW	102	1	.015451	.1	.047553	.015451	.15	.047553	.001896
GW	103	1	.029389	-.15	.040451	.029389	-.1	.040451	.001896
GW	104	1	.029389	-.1	.040451	.029389	-.05	.040451	.001896
GW	105	1	.029389	-.05	.040451	.029389	0	.040451	.001896
GW	106	1	.029389	0	.040451	.029389	.05	.040451	.001896
GW	107	1	.029389	.05	.040451	.029389	.1	.040451	.001896
GW	108	1	.029389	.1	.040451	.029389	.15	.040451	.001896
GW	109	1	.040451	-.15	.029389	.040451	-.1	.029389	.001896
GW	110	1	.040451	-.1	.029389	.040451	-.05	.029389	.001896
GW	111	1	.040451	-.05	.029389	.040451	0	.029389	.001896
GW	112	1	.040451	0	.029389	.040451	.05	.029389	.001896
GW	113	1	.040451	.05	.029389	.040451	.1	.029389	.001896
GW	114	1	.040451	.1	.029389	.040451	.15	.029389	.001896
GW	115	1	.047553	-.15	.015451	.047553	-.1	.015451	.001896
GW	116	1	.047553	-.1	.015451	.047553	-.05	.015451	.001896
GW	117	1	.047553	-.05	.015451	.047553	0	.015451	.001896
GW	118	1	.047553	0	.015451	.047553	.05	.015451	.001896
GW	119	1	.047553	.05	.015451	.047553	.1	.015451	.001896
GW	120	1	.047553	.1	.015451	.047553	.15	.015451	.001896
GW	121	1	.05	-.15	0	.047553	-.15	-.015451	.001896
GW	122	1	.047553	-.15	-.015451	.040451	-.15	-.029389	.001896
GW	123	1	.040451	-.15	-.029389	.029389	-.15	-.040451	.001896
GW	124	1	.029389	-.15	-.040451	.015451	-.15	-.047553	.001896
GW	125	1	.015451	-.15	-.047553	0	-.15	-.05	.001896
GW	126	1	0	-.15	-.05	-.015451	-.15	-.047553	.001896
GW	127	1	-.015451	-.15	-.047553	-.029389	-.15	-.040451	.001896
GW	128	1	-.029389	-.15	-.040451	-.040451	-.15	-.029389	.001896
GW	129	1	-.040451	-.15	-.029389	-.047553	-.15	-.015451	.001896
GW	130	1	-.047553	-.15	-.015451	-.05	-.15	0	.001896
GW	131	1	-.05	-.15	0	-.047553	-.15	.015451	.001896
GW	132	1	-.047553	-.15	.015451	-.040451	-.15	.029389	.001896
GW	133	1	-.040451	-.15	.029389	-.029389	-.15	.040451	.001896
GW	134	1	-.029389	-.15	.040451	-.015451	-.15	.047553	.001896
GW	135	1	-.015451	-.15	.047553	0	-.15	.05	.001896
GW	136	1	0	-.15	.05	.015451	-.15	.047553	.001896
GW	137	1	.015451	-.15	.047553	.029389	-.15	.040451	.001896
GW	138	1	.029389	-.15	.040451	.040451	-.15	.029389	.001896
GW	139	1	.040451	-.15	.029389	.047553	-.15	.015451	.001896
GW	140	1	.047553	-.15	.015451	.05	-.15	0	.001896
GW	141	1	0	-.15	0	.008333	-.15	0	.000156
GW	142	1	.008333	-.15	0	.016667	-.15	0	.000378
GW	143	1	.016667	-.15	0	.025	-.15	0	.000529
GW	144	1	.025	-.15	0	.033333	-.15	0	.000637
GW	145	1	.033333	-.15	0	.041667	-.15	0	.000719
GW	146	1	.041667	-.15	0	.05	-.15	0	.000783
GW	147	1	0	-.15	0	.007925	-.15	-.002575	.000156
GW	148	1	.007925	-.15	-.002575	.015851	-.15	-.00515	.000378
GW	149	1	.015851	-.15	-.00515	.023776	-.15	-.007725	.000529
GW	150	1	.023776	-.15	-.007725	.031702	-.15	-.010301	.000637
GW	151	1	.031702	-.15	-.010301	.039627	-.15	-.012876	.000719
GW	152	1	.039627	-.15	-.012876	.047553	-.15	-.015451	.000783
GW	153	1	0	-.15	0	.006742	-.15	-.004898	.000156
GW	154	1	.006742	-.15	-.004898	.013484	-.15	-.009796	.000378
GW	155	1	.013484	-.15	-.009796	.020225	-.15	-.014695	.000529
GW	156	1	.020225	-.15	-.014695	.026967	-.15	-.019593	.000637
GW	157	1	.026967	-.15	-.019593	.033709	-.15	-.024491	.000719
GW	158	1	.033709	-.15	-.024491	.040451	-.15	-.029389	.000783
GW	159	1	0	-.15	0	.004898	-.15	-.006742	.000156
GW	160	1	.004898	-.15	-.006742	.009796	-.15	-.013484	.000378
GW	161	1	.009796	-.15	-.013484	.014695	-.15	-.020225	.000529
GW	162	1	.014695	-.15	-.020225	.019593	-.15	-.026967	.000637
GW	163	1	.019593	-.15	-.026967	.024491	-.15	-.033709	.000719
GW	164	1	.024491	-.15	-.033709	.029389	-.15	-.040451	.000783
GW	165	1	0	-.15	0	.002575	-.15	-.007925	.000156
GW	166	1	.002575	-.15	-.007925	.00515	-.15	-.015851	.000378
GW	167	1	.00515	-.15	-.015851	.007725	-.15	-.023776	.000529
GW	168	1	.007725	-.15	-.023776	.010301	-.15	-.031702	.000637
GW	169	1	.010301	-.15	-.031702	.012876	-.15	-.039627	.000719
GW	170	1	.012876	-.15	-.039627	.015451	-.15	-.047553	.000783
GW	171	1	0	-.15	0	0	-.15	-.008333	.000156
GW	172	1	0	-.15	-.008333	0	-.15	-.016667	.000378
GW	173	1	0	-.15	-.016667	0	-.15	-.025	.000529
GW	174	1	0	-.15	-.025	0	-.15	-.033333	.000637
GW	175	1	0	-.15	-.033333	0	-.15	-.041667	.000719
GW	176	1	0	-.15	-.041667	0	-.15	-.05	.000783
GW	177	1	0	-.15	0	-.002575	-.15	-.007925	.000156
GW	178	1	-.002575	-.15	-.007925	-.00515	-.15	-.015851	.000378
GW	179	1	-.00515	-.15	-.015851	-.007725	-.15	-.023776	.000529
GW	180	1	-.007725	-.15	-.023776	-.010301	-.15	-.031702	.000637
GW	181	1	-.010301	-.15	-.031702	-.012876	-.15	-.039627	.000719
GW	182	1	-.012876	-.15	-.039627	-.015451	-.15	-.047553	.000783
GW	183	1	0	-.15	0	-.004898	-.15	-.006742	.000156
GW	184	1	-.004898	-.15	-.006742	-.009796	-.15	-.013484	.000378
GW	185	1	-.009796	-.15	-.013484	-.014695	-.15	-.020225	.000529
GW	186	1	-.014695	-.15	-.020225	-.019593	-.15	-.026967	.000637
GW	187	1	-.019593	-.15	-.026967	-.024491	-.15	-.033709	.000719
GW	188	1	-.024491	-.15	-.033709	-.029389	-.15	-.040451	.000783
GW	189	1	0	-.15	0	-.006742	-.15	-.004898	.000156
GW	190	1	-.006742	-.15	-.004898	-.013484	-.15	-.009796	.000378
GW	191	1	-.013484	-.15	-.009796	-.020225	-.15	-.014695	.000529
GW	192	1	-.020225	-.15	-.014695	-.026967	-.15	-.019593	.000637
GW	193	1	-.026967	-.15	-.019593	-.033709	-.15	-.024491	.000719
GW	194	1	-.033709	-.15	-.024491	-.040451	-.15	-.029389	.000783
GW	195	1	0	-.15	0	-.007925	-.15	-.002575	.000156
GW	196	1	-.007925	-.15	-.002575	-.015851	-.15	-.00515	.000378
GW	197	1	-.015851	-.15	-.00515	-.023776	-.15	-.007725	.000529
GW	198	1	-.023776	-.15	-.007725	-.031702	-.15	-.010301	.000637
GW	199	1	-.031702	-.15	-.010301	-.039627	-.15	-.012876	.000719
GW	200	1	-.039627	-.15	-.012876	-.047553	-.15	-.015451	.000783
GW	201	1	0	-.15	0	-.008333	-.15	0	.000156
GW	202	1	-.008333	-.15	0	-.016667	-.15	0	.000378
GW	203	1	-.016667	-.15	0	-.025	-.15	0	.000529
GW	204	1	-.025	-.15	0	-.033333	-.15	0	.000637
GW	205	1	-.033333	-.15	0	-.041667	-.15	0	.000719
GW	206	1	-.041667	-.15	0	-.05	-.15	0	.000783
GW	207	1	0	-.15	0	-.007925	-.15	.002575	.000156
GW	208	1	-.007925	-.15	.002575	-.015851	-.15	.00515	.000378
GW	209	1	-.015851	-.15	.00515	-.023776	-.15	.007725	.000529
GW	210	1	-.023776	-.15	.007725	-.031702	-.15	.010301	.000637
GW	211	1	-.031702	-.15	.010301	-.039627	-.15	.012876	.000719
GW	212	1	-.039627	-.15	.012876	-.047553	-.15	.015451	.000783
GW	213	1	0	-.15	0	-.006742	-.15	.004898	.000156
GW	214	1	-.006742	-.15	.004898	-.013484	-.15	.009796	.000378
GW	215	1	-.013484	-.15	.009796	-.020225	-.15	.014695	.000529
GW	216	1	-.020225	-.15	.014695	-.026967	-.15	.019593	.000637
GW	217	1	-.026967	-.15	.019593	-.033709	-.15	.024491	.000719
GW	218	1	-.033709	-.15	.024491	-.040451	-.15	.029389	.000783
GW	219	1	0	-.15	0	-.004898	-.15	.006742	.000156
GW	220	1	-.004898	-.15	.006742	-.009796	-.15	.013484	.000378
GW	221	1	-.009796	-.15	.013484	-.014695	-.15	.020225	.000529
GW	222	1	-.014695	-.15	.020225	-.019593	-.15	.026967	.000637
GW	223	1	-.019593	-.15	.026967	-.024491	-.15	.033709	.000719
GW	224	1	-.024491	-.15	.033709	-.029389	-.15	.040451	.000783
GW	225	1	0	-.15	0	-.002575	-.15	.007925	.000156
GW	226	1	-.002575	-.15	.007925	-.00515	-.15	.015851	.000378
GW	227	1	-.00515	-.15	.015851	-.007725	-.15	.023776	.000529
GW	228	1	-.007725	-.15	.023776	-.010301	-.15	.031702	.000637
GW	229	1	-.010301	-.15	.031702	-.012876	-.15	.039627	.000719
GW	230	1	-.012876	-.15	.039627	-.015451	-.15	.047553	.000783
GW	231	1	0	-.15	0	0	-.15	.008333	.000156
GW	232	1	0	-.15	.008333	0	-.15	.016667	.000378
GW	233	1	0	-.15	.016667	0	-.15	.025	.000529
GW	234	1	0	-.15	.025	0	-.15	.033333	.000637
GW	235	1	0	-.15	.033333	0	-.15	.041667	.000719
GW	236	1	0	-.15	.041667	0	-.15	.05	.000783
GW	237	1	0	-.15	0	.002575	-.15	.007925	.000156
GW	238	1	.002575	-.15	.007925	.00515	-.15	.015851	.000378
GW	239	1	.00515	-.15	.015851	.007725	-.15	.023776	.000529
GW	240	1	.007725	-.15	.023776	.010301	-.15	.031702	.000637
GW	241	1	.010301	-.15	.031702	.012876	-.15	.039627	.000719
GW	242	1	.012876	-.15	.039627	.015451	-.15	.047553	.000783
GW	243	1	0	-.15	0	.004898	-.15	.006742	.000156
GW	244	1	.004898	-.15	.006742	.009796	-.15	.013484	.000378
GW	245	1	.009796	-.15	.013484	.014695	-.15	.020225	.000529
GW	246	1	.014695	-.15	.020225	.019593	-.15	.026967	.000637
GW	247	1	.019593	-.15	.026967	.024491	-.15	.033709	.000719
GW	248	1	.024491	-.15	.033709	.029389	-.15	.040451	.000783
GW	249	1	0	-.15	0	.006742	-.15	.004898	.000156
GW	250	1	.006742	-.15	.004898	.013484	-.15	.009796	.000378
GW	251	1	.013484	-.15	.009796	.020225	-.15	.014695	.000529
GW	252	1	.020225	-.15	.014695	.026967	-.15	.019593	.000637
GW	253	1	.026967	-.15	.019593	.033709	-.15	.024491	.000719
GW	254	1	.033709	-.15	.024491	.040451	-.15	.029389	.000783
GW	255	1	0	-.15	0	.007925	-.15	.002575	.000156
GW	256	1	.007925	-.15	.002575	.015851	-.15	.00515	.000378
GW	257	1	.015851	-.15	.00515	.023776	-.15	.007725	.000529
GW	258	1	.023776	-.15	.007725	.031702	-.15	.010301	.000637
GW	259	1	.031702	-.15	.010301	.039627	-.15	.012876	.000719
GW	260	1	.039627	-.15	.012876	.047553	-.15	.015451	.000783
GW	261	1	.008333	-.15	0	.007925	-.15	-.002575	.000156
GW	262	1	.007925	-.15	-.002575	.006742	-.15	-.004898	.000156
GW	263	1	.006742	-.15	-.004898	.004898	-.15	-.006742	.000156
GW	264	1	.004898	-.15	-.006742	.002575	-.15	-.007925	.000156
GW	265	1	.002575	-.15	-.007925	0	-.15	-.008333	.000156
GW	266	1	0	-.15	-.008333	-.002575	-.15	-.007925	.000156
GW	267	1	-.002575	-.15	-.007925	-.004898	-.15	-.006742	.000156
GW	268	1	-.004898	-.15	-.006742	-.006742	-.15	-.004898	.000156
GW	269	1	-.006742	-.15	-.004898	-.007925	-.15	-.002575	.000156
GW	270	1	-.007925	-.15	-.002575	-.008333	-.15	0	.000156
GW	271	1	-.008333	-.15	0	-.007925	-.15	.002575	.000156
GW	272	1	-.007925	-.15	.002575	-.006742	-.15	.004898	.000156
GW	273	1	-.006742	-.15	.004898	-.004898	-.15	.006742	.000156
GW	274	1	-.004898	-.15	.006742	-.002575	-.15	.007925	.000156
GW	275	1	-.002575	-.15	.007925	0	-.15	.008333	.000156
GW	276	1	0	-.15	.008333	.002575	-.15	.007925	.000156
GW	277	1	.002575	-.15	.007925	.004898	-.15	.006742	.000156
GW	278	1	.004898	-.15	.006742	.006742	-.15	.004898	.000156
GW	279	1	.006742	-.15	.004898	.007925	-.15	.002575	.000156
GW	280	1	.007925	-.15	.002575	.008333	-.15	0	.000156
GW	281	1	.016667	-.15	0	.015851	-.15	-.00515	.000378
GW	282	1	.015851	-.15	-.00515	.013484	-.15	-.009796	.000378
GW	283	1	.013484	-.15	-.009796	.009796	-.15	-.013484	.000378
GW	284	1	.009796	-.15	-.013484	.00515	-.15	-.015851	.000378
GW	285	1	.00515	-.15	-.015851	0	-.15	-.016667	.000378
GW	286	1	0	-.15	-.016667	-.00515	-.15	-.015851	.000378
GW	287	1	-.00515	-.15	-.015851	-.009796	-.15	-.013484	.000378
GW	288	1	-.009796	-.15	-.013484	-.013484	-.15	-.009796	.000378
GW	289	1	-.013484	-.15	-.009796	-.015851	-.15	-.00515	.000378
GW	290	1	-.015851	-.15	-.00515	-.016667	-.15	0	.000378
GW	291	1	-.016667	-.15	0	-.015851	-.15	.00515	.000378
GW	292	1	-.015851	-.15	.00515	-.013484	-.15	.009796	.000378
GW	293	1	-.013484	-.15	.009796	-.009796	-.15	.013484	.000378
GW	294	1	-.009796	-.15	.013484	-.00515	-.15	.015851	.000378
GW	295	1	-.00515	-.15	.015851	0	-.15	.016667	.000378
GW	296	1	0	-.15	.016667	.00515	-.15	.015851	.000378
GW	297	1	.00515	-.15	.015851	.009796	-.15	.013484	.000378
GW	298	1	.009796	-.15	.013484	.013484	-.15	.009796	.000378
GW	299	1	.013484	-.15	.009796	.015851	-.15	.00515	.000378
GW	300	1	.015851	-.15	.00515	.016667	-.15	0	.000378
GW	301	1	.025	-.15	0	.023776	-.15	-.007725	.000529
GW	302	1	.023776	-.15	-.007725	.020225	-.15	-.014695	.000529
GW	303	1	.020225	-.15	-.014695	.014695	-.15	-.020225	.000529
GW	304	1	.014695	-.15	-.020225	.007725	-.15	-.023776	.000529
GW	305	1	.007725	-.15	-.023776	0	-.15	-.025	.000529
GW	306	1	0	-.15	-.025	-.007725	-.15	-.023776	.000529
GW	307	1	-.007725	-.15	-.023776	-.014695	-.15	-.020225	.000529
GW	308	1	-.014695	-.15	-.020225	-.020225	-.15	-.014695	.000529
GW	309	1	-.020225	-.15	-.014695	-.023776	-.15	-.007725	.000529
GW	310	1	-.023776	-.15	-.007725	-.025	-.15	0	.000529
GW	311	1	-.025	-.15	0	-.023776	-.15	.007725	.000529
GW	312	1	-.023776	-.15	.007725	-.020225	-.15	.014695	.000529
GW	313	1	-.020225	-.15	.014695	-.014695	-.15	.020225	.000529
GW	314	1	-.014695	-.15	.020225	-.007725	-.15	.023776	.000529
GW	315	1	-.007725	-.15	.023776	0	-.15	.025	.000529
GW	316	1	0	-.15	.025	.007725	-.15	.023776	.000529
GW	317	1	.007725	-.15	.023776	.014695	-.15	.020225	.000529
GW	318	1	.014695	-.15	.020225	.020225	-.15	.014695	.000529
GW	319	1	.020225	-.15	.014695	.023776	-.15	.007725	.000529
GW	320	1	.023776	-.15	.007725	.025	-.15	0	.000529
GW	321	1	.033333	-.15	0	.031702	-.15	-.010301	.000637
GW	322	1	.031702	-.15	-.010301	.026967	-.15	-.019593	.000637
GW	323	1	.026967	-.15	-.019593	.019593	-.15	-.026967	.000637
GW	324	1	.019593	-.15	-.026967	.010301	-.15	-.031702	.000637
GW	325	1	.010301	-.15	-.031702	0	-.15	-.033333	.000637
GW	326	1	0	-.15	-.033333	-.010301	-.15	-.031702	.000637
GW	327	1	-.010301	-.15	-.031702	-.019593	-.15	-.026967	.000637
GW	328	1	-.019593	-.15	-.026967	-.026967	-.15	-.019593	.000637
GW	329	1	-.026967	-.15	-.019593	-.031702	-.15	-.010301	.000637
GW	330	1	-.031702	-.15	-.010301	-.033333	-.15	0	.000637
GW	331	1	-.033333	-.15	0	-.031702	-.15	.010301	.000637
GW	332	1	-.031702	-.15	.010301	-.026967	-.15	.019593	.000637
GW	333	1	-.026967	-.15	.019593	-.019593	-.15	.026967	.000637
GW	334	1	-.019593	-.15	.026967	-.010301	-.15	.031702	.000637
GW	335	1	-.010301	-.15	.031702	0	-.15	.033333	.000637
GW	336	1	0	-.15	.033333	.010301	-.15	.031702	.000637
GW	337	1	.010301	-.15	.031702	.019593	-.15	.026967	.000637
GW	338	1	.019593	-.15	.026967	.026967	-.15	.019593	.000637
GW	339	1	.026967	-.15	.019593	.031702	-.15	.010301	.000637
GW	340	1	.031702	-.15	.010301	.033333	-.15	0	.000637
GW	341	1	.041667	-.15	0	.039627	-.15	-.012876	.000719
GW	342	1	.039627	-.15	-.012876	.033709	-.15	-.024491	.000719
GW	343	1	.033709	-.15	-.024491	.024491	-.15	-.033709	.000719
GW	344	1	.024491	-.15	-.033709	.012876	-.15	-.039627	.000719
GW	345	1	.012876	-.15	-.039627	0	-.15	-.041667	.000719
GW	346	1	0	-.15	-.041667	-.012876	-.15	-.039627	.000719
GW	347	1	-.012876	-.15	-.039627	-.024491	-.15	-.033709	.000719
GW	348	1	-.024491	-.15	-.033709	-.033709	-.15	-.024491	.000719
GW	349	1	-.033709	-.15	-.024491	-.039627	-.15	-.012876	.000719
GW	350	1	-.039627	-.15	-.012876	-.041667	-.15	0	.000719
GW	351	1	-.041667	-.15	0	-.039627	-.15	.012876	.000719
GW	352	1	-.039627	-.15	.012876	-.033709	-.15	.024491	.000719
GW	353	1	-.033709	-.15	.024491	-.024491	-.15	.033709	.000719
GW	354	1	-.024491	-.15	.033709	-.012876	-.15	.039627	.000719
GW	355	1	-.012876	-.15	.039627	0	-.15	.041667	.000719
GW	356	1	0	-.15	.041667	.012876	-.15	.039627	.000719
GW	357	1	.012876	-.15	.039627	.024491	-.15	.033709	.000719
GW	358	1	.024491	-.15	.033709	.033709	-.15	.024491	.000719
GW	359	1	.033709	-.15	.024491	.039627	-.15	.012876	.000719
GW	360	1	.039627	-.15	.012876	.041667	-.15	0	.000719
GW	361	1	.05	-.1	0	.047553	-.1	-.015451	.001896
GW	362	1	.047553	-.1	-.015451	.040451	-.1	-.029389	.001896
GW	363	1	.040451	-.1	-.029389	.029389	-.1	-.040451	.001896
GW	364	1	.029389	-.1	-.040451	.015451	-.1	-.047553	.001896
GW	365	1	.015451	-.1	-.047553	0	-.1	-.05	.001896
GW	366	1	0	-.1	-.05	-.015451	-.1	-.047553	.001896
GW	367	1	-.015451	-.1	-.047553	-.029389	-.1	-.040451	.001896
GW	368	1	-.029389	-.1	-.040451	-.040451	-.1	-.029389	.001896
GW	369	1	-.040451	-.1	-.029389	-.047553	-.1	-.015451	.001896
GW	370	1	-.047553	-.1	-.015451	-.05	-.1	0	.001896
GW	371	1	-.05	-.1	0	-.047553	-.1	.015451	.001896
GW	372	1	-.047553	-.1	.015451	-.040451	-.1	.029389	.001896
GW	373	1	-.040451	-.1	.029389	-.029389	-.1	.040451	.001896
GW	374	1	-.029389	-.1	.040451	-.015451	-.1	.047553	.001896
GW	375	1	-.015451	-.1	.047553	0	-.1	.05	.001896
GW	376	1	0	-.1	.05	.015451	-.1	.047553	.001896
GW	377	1	.015451	-.1	.047553	.029389	-.1	.040451	.001896
GW	378	1	.029389	-.1	.040451	.040451	-.1	.029389	.001896
GW	379	1	.040451	-.1	.029389	.047553	-.1	.015451	.001896
GW	380	1	.047553	-.1	.015451	.05	-.1	0	.001896
GW	381	1	.05	-.05	0	.047553	-.05	-.015451	.001896
GW	382	1	.047553	-.05	-.015451	.040451	-.05	-.029389	.001896
GW	383	1	.040451	-.05	-.029389	.029389	-.05	-.040451	.001896
GW	384	1	.029389	-.05	-.040451	.015451	-.05	-.047553	.001896
GW	385	1	.015451	-.05	-.047553	0	-.05	-.05	.001896
GW	386	1	0	-.05	-.05	-.015451	-.05	-.047553	.001896
GW	387	1	-.015451	-.05	-.047553	-.029389	-.05	-.040451	.001896
GW	388	1	-.029389	-.05	-.040451	-.040451	-.05	-.029389	.001896
GW	389	1	-.040451	-.05	-.029389	-.047553	-.05	-.015451	.001896
GW	390	1	-.047553	-.05	-.015451	-.05	-.05	0	.001896
GW	391	1	-.05	-.05	0	-.047553	-.05	.015451	.001896
GW	392	1	-.047553	-.05	.015451	-.040451	-.05	.029389	.001896
GW	393	1	-.040451	-.05	.029389	-.029389	-.05	.040451	.001896
GW	394	1	-.029389	-.05	.040451	-.015451	-.05	.047553	.001896
GW	395	1	-.015451	-.05	.047553	0	-.05	.05	.001896
GW	396	1	0	-.05	.05	.015451	-.05	.047553	.001896
GW	397	1	.015451	-.05	.047553	.029389	-.05	.040451	.001896
GW	398	1	.029389	-.05	.040451	.040451	-.05	.029389	.001896
GW	399	1	.040451	-.05	.029389	.047553	-.05	.015451	.001896
GW	400	1	.047553	-.05	.015451	.05	-.05	0	.001896
GW	401	1	.05	0	0	.047553	0	-.015451	.001896
GW	402	1	.047553	0	-.015451	.040451	0	-.029389	.001896
GW	403	1	.040451	0	-.029389	.029389	0	-.040451	.001896
GW	404	1	.029389	0	-.040451	.015451	0	-.047553	.001896
GW	405	1	.015451	0	-.047553	0	0	-.05	.001896
GW	406	1	0	0	-.05	-.015451	0	-.047553	.001896
GW	407	1	-.015451	0	-.047553	-.029389	0	-.040451	.001896
GW	408	1	-.029389	0	-.040451	-.040451	0	-.029389	.001896
GW	409	1	-.040451	0	-.029389	-.047553	0	-.015451	.001896
GW	410	1	-.047553	0	-.015451	-.05	0	0	.001896
GW	411	1	-.05	0	0	-.047553	0	.015451	.001896
GW	412	1	-.047553	0	.015451	-.040451	0	.029389	.001896
GW	413	1	-.040451	0	.029389	-.029389	0	.040451	.001896
GW	414	1	-.029389	0	.040451	-.015451	0	.047553	.001896
GW	415	1	-.015451	0	.047553	0	0	.05	.001896
GW	416	1	0	0	.05	.015451	0	.047553	.001896
GW	417	1	.015451	0	.047553	.029389	0	.040451	.001896
GW	418	1	.029389	0	.040451	.040451	0	.029389	.001896
GW	419	1	.040451	0	.029389	.047553	0	.015451	.001896
GW	420	1	.047553	0	.015451	.05	0	0	.001896
GW	421	1	.05	.05	0	.047553	.05	-.015451	.001896
GW	422	1	.047553	.05	-.015451	.040451	.05	-.029389	.001896
GW	423	1	.040451	.05	-.029389	.029389	.05	-.040451	.001896
GW	424	1	.029389	.05	-.040451	.015451	.05	-.047553	.001896
GW	425	1	.015451	.05	-.047553	0	.05	-.05	.001896
GW	426	1	0	.05	-.05	-.015451	.05	-.047553	.001896
GW	427	1	-.015451	.05	-.047553	-.029389	.05	-.040451	.001896
GW	428	1	-.029389	.05	-.040451	-.040451	.05	-.029389	.001896
GW	429	1	-.040451	.05	-.029389	-.047553	.05	-.015451	.001896
GW	430	1	-.047553	.05	-.015451	-.05	.05	0	.001896
GW	431	1	-.05	.05	0	-.047553	.05	.015451	.001896
GW	432	1	-.047553	.05	.015451	-.040451	.05	.029389	.001896
GW	433	1	-.040451	.05	.029389	-.029389	.05	.040451	.001896
GW	434	1	-.029389	.05	.040451	-.015451	.05	.047553	.001896
GW	435	1	-.015451	.05	.047553	0	.05	.05	.001896
GW	436	1	0	.05	.05	.015451	.05	.047553	.001896
GW	437	1	.015451	.05	.047553	.029389	.05	.040451	.001896
GW	438	1	.029389	.05	.040451	.040451	.05	.029389	.001896
GW	439	1	.040451	.05	.029389	.047553	.05	.015451	.001896
GW	440	1	.047553	.05	.015451	.05	.05	0	.001896
GW	441	1	.05	.1	0	.047553	.1	-.015451	.001896
GW	442	1	.047553	.1	-.015451	.040451	.1	-.029389	.001896
GW	443	1	.040451	.1	-.029389	.029389	.1	-.040451	.001896
GW	444	1	.029389	.1	-.040451	.015451	.1	-.047553	.001896
GW	445	1	.015451	.1	-.047553	0	.1	-.05	.001896
GW	446	1	0	.1	-.05	-.015451	.1	-.047553	.001896
GW	447	1	-.015451	.1	-.047553	-.029389	.1	-.040451	.001896
GW	448	1	-.029389	.1	-.040451	-.040451	.1	-.029389	.001896
GW	449	1	-.040451	.1	-.029389	-.047553	.1	-.015451	.001896
GW	450	1	-.047553	.1	-.015451	-.05	.1	0	.001896
GW	451	1	-.05	.1	0	-.047553	.1	.015451	.001896
GW	452	1	-.047553	.1	.015451	-.040451	.1	.029389	.001896
GW	453	1	-.040451	.1	.029389	-.029389	.1	.040451	.001896
GW	454	1	-.029389	.1	.040451	-.015451	.1	.047553	.001896
GW	455	1	-.015451	.1	.047553	0	.1	.05	.001896
GW	456	1	0	.1	.05	.015451	.1	.047553	.001896
GW	457	1	.015451	.1	.047553	.029389	.1	.040451	.001896
GW	458	1	.029389	.1	.040451	.040451	.1	.029389	.001896
GW	459	1	.040451	.1	.029389	.047553	.1	.015451	.001896
GW	460	1	.047553	.1	.015451	.05	.1	0	.001896
GW	461	1	.05	.15	0	.047553	.15	-.015451	.001896
GW	462	1	.047553	.15	-.015451	.040451	.15	-.029389	.001896
GW	463	1	.040451	.15	-.029389	.029389	.15	-.040451	.001896
GW	464	1	.029389	.15	-.040451	.015451	.15	-.047553	.001896
GW	465	1	.015451	.15	-.047553	0	.15	-.05	.001896
GW	466	1	0	.15	-.05	-.015451	.15	-.047553	.001896
GW	467	1	-.015451	.15	-.047553	-.029389	.15	-.040451	.001896
GW	468	1	-.029389	.15	-.040451	-.040451	.15	-.029389	.001896
GW	469	1	-.040451	.15	-.029389	-.047553	.15	-.015451	.001896
GW	470	1	-.047553	.15	-.015451	-.05	.15	0	.001896
GW	471	1	-.05	.15	0	-.047553	.15	.015451	.001896
GW	472	1	-.047553	.15	.015451	-.040451	.15	.029389	.001896
GW	473	1	-.040451	.15	.029389	-.029389	.15	.040451	.001896
GW	474	1	-.029389	.15	.040451	-.015451	.15	.047553	.001896
GW	475	1	-.015451	.15	.047553	0	.15	.05	.001896
GW	476	1	0	.15	.05	.015451	.15	.047553	.001896
GW	477	1	.015451	.15	.047553	.029389	.15	.040451	.001896
GW	478	1	.029389	.15	.040451	.040451	.15	.029389	.001896
GW	479	1	.040451	.15	.029389	.047553	.15	.015451	.001896
GW	480	1	.047553	.15	.015451	.05	.15	0	.001896
GW	481	1	0	.15	0	.008333	.15	0	.000156
GW	482	1	.008333	.15	0	.016667	.15	0	.000378
GW	483	1	.016667	.15	0	.025	.15	0	.000529
GW	484	1	.025	.15	0	.033333	.15	0	.000637
GW	485	1	.033333	.15	0	.041667	.15	0	.000719
GW	486	1	.041667	.15	0	.05	.15	0	.000783
GW	487	1	0	.15	0	.007925	.15	-.002575	.000156
GW	488	1	.007925	.15	-.002575	.015851	.15	-.00515	.000378
GW	489	1	.015851	.15	-.00515	.023776	.15	-.007725	.000529
GW	490	1	.023776	.15	-.007725	.031702	.15	-.010301	.000637
GW	491	1	.031702	.15	-.010301	.039627	.15	-.012876	.000719
GW	492	1	.039627	.15	-.012876	.047553	.15	-.015451	.000783
GW	493	1	0	.15	0	.006742	.15	-.004898	.000156
GW	494	1	.006742	.15	-.004898	.013484	.15	-.009796	.000378
GW	495	1	.013484	.15	-.009796	.020225	.15	-.014695	.000529
GW	496	1	.020225	.15	-.014695	.026967	.15	-.019593	.000637
GW	497	1	.026967	.15	-.019593	.033709	.15	-.024491	.000719
GW	498	1	.033709	.15	-.024491	.040451	.15	-.029389	.000783
GW	499	1	0	.15	0	.004898	.15	-.006742	.000156
GW	500	1	.004898	.15	-.006742	.009796	.15	-.013484	.000378
GW	501	1	.009796	.15	-.013484	.014695	.15	-.020225	.000529
GW	502	1	.014695	.15	-.020225	.019593	.15	-.026967	.000637
GW	503	1	.019593	.15	-.026967	.024491	.15	-.033709	.000719
GW	504	1	.024491	.15	-.033709	.029389	.15	-.040451	.000783
GW	505	1	0	.15	0	.002575	.15	-.007925	.000156
GW	506	1	.002575	.15	-.007925	.00515	.15	-.015851	.000378
GW	507	1	.00515	.15	-.015851	.007725	.15	-.023776	.000529
GW	508	1	.007725	.15	-.023776	.010301	.15	-.031702	.000637
GW	509	1	.010301	.15	-.031702	.012876	.15	-.039627	.000719
GW	510	1	.012876	.15	-.039627	.015451	.15	-.047553	.000783
GW	511	1	0	.15	0	0	.15	-.008333	.000156
GW	512	1	0	.15	-.008333	0	.15	-.016667	.000378
GW	513	1	0	.15	-.016667	0	.15	-.025	.000529
GW	514	1	0	.15	-.025	0	.15	-.033333	.000637
GW	515	1	0	.15	-.033333	0	.15	-.041667	.000719
GW	516	1	0	.15	-.041667	0	.15	-.05	.000783
GW	517	1	0	.15	0	-.002575	.15	-.007925	.000156
GW	518	1	-.002575	.15	-.007925	-.00515	.15	-.015851	.000378
GW	519	1	-.00515	.15	-.015851	-.007725	.15	-.023776	.000529
GW	520	1	-.007725	.15	-.023776	-.010301	.15	-.031702	.000637
GW	521	1	-.010301	.15	-.031702	-.012876	.15	-.039627	.000719
GW	522	1	-.012876	.15	-.039627	-.015451	.15	-.047553	.000783
GW	523	1	0	.15	0	-.004898	.15	-.006742	.000156
GW	524	1	-.004898	.15	-.006742	-.009796	.15	-.013484	.000378
GW	525	1	-.009796	.15	-.013484	-.014695	.15	-.020225	.000529
GW	526	1	-.014695	.15	-.020225	-.019593	.15	-.026967	.000637
GW	527	1	-.019593	.15	-.026967	-.024491	.15	-.033709	.000719
GW	528	1	-.024491	.15	-.033709	-.029389	.15	-.040451	.000783
GW	529	1	0	.15	0	-.006742	.15	-.004898	.000156