CM Length L in mtr. = .1
CM Radius R1 in cm. = 2
CM Radius R2 in cm. = 2
CM Start angle A1 = 0
CM Stop angle A2 = 360
CM Straight sections = 6
CM Circular sections = 6
CM Radial sections = 6
CM Rotate X, Y, Z = 90, 0, 0
CM Move X, Y, Z = 0, 0, 0
CE
GW     1    1      .02       .0       .0      .02  .016667       .0  .001447
GW     2    1      .02  .016667       .0      .02  .033333       .0  .001447
GW     3    1      .02  .033333       .0      .02      .05       .0  .001447
GW     4    1      .02      .05       .0      .02  .066667       .0  .001447
GW     5    1      .02  .066667       .0      .02  .083333       .0  .001447
GW     6    1      .02  .083333       .0      .02       .1       .0  .001447
GW     7    1      .01       .0 -.017321      .01  .016667 -.017321  .001447
GW     8    1      .01  .016667 -.017321      .01  .033333 -.017321  .001447
GW     9    1      .01  .033333 -.017321      .01      .05 -.017321  .001447
GW    10    1      .01      .05 -.017321      .01  .066667 -.017321  .001447
GW    11    1      .01  .066667 -.017321      .01  .083333 -.017321  .001447
GW    12    1      .01  .083333 -.017321      .01       .1 -.017321  .001447
GW    13    1     -.01       .0 -.017321     -.01  .016667 -.017321  .001447
GW    14    1     -.01  .016667 -.017321     -.01  .033333 -.017321  .001447
GW    15    1     -.01  .033333 -.017321     -.01      .05 -.017321  .001447
GW    16    1     -.01      .05 -.017321     -.01  .066667 -.017321  .001447
GW    17    1     -.01  .066667 -.017321     -.01  .083333 -.017321  .001447
GW    18    1     -.01  .083333 -.017321     -.01       .1 -.017321  .001447
GW    19    1     -.02       .0       .0     -.02  .016667       .0  .001447
GW    20    1     -.02  .016667       .0     -.02  .033333       .0  .001447
GW    21    1     -.02  .033333       .0     -.02      .05       .0  .001447
GW    22    1     -.02      .05       .0     -.02  .066667       .0  .001447
GW    23    1     -.02  .066667       .0     -.02  .083333       .0  .001447
GW    24    1     -.02  .083333       .0     -.02       .1       .0  .001447
GW    25    1     -.01       .0  .017321     -.01  .016667  .017321  .001447
GW    26    1     -.01  .016667  .017321     -.01  .033333  .017321  .001447
GW    27    1     -.01  .033333  .017321     -.01      .05  .017321  .001447
GW    28    1     -.01      .05  .017321     -.01  .066667  .017321  .001447
GW    29    1     -.01  .066667  .017321     -.01  .083333  .017321  .001447
GW    30    1     -.01  .083333  .017321     -.01       .1  .017321  .001447
GW    31    1      .01       .0  .017321      .01  .016667  .017321  .001447
GW    32    1      .01  .016667  .017321      .01  .033333  .017321  .001447
GW    33    1      .01  .033333  .017321      .01      .05  .017321  .001447
GW    34    1      .01      .05  .017321      .01  .066667  .017321  .001447
GW    35    1      .01  .066667  .017321      .01  .083333  .017321  .001447
GW    36    1      .01  .083333  .017321      .01       .1  .017321  .001447
GW    37    1      .02       .0       .0      .01       .0 -.017321  .001447
GW    38    1      .01       .0 -.017321     -.01       .0 -.017321  .001447
GW    39    1     -.01       .0 -.017321     -.02       .0       .0  .001447
GW    40    1     -.02       .0       .0     -.01       .0  .017321  .001447
GW    41    1     -.01       .0  .017321      .01       .0  .017321  .001447
GW    42    1      .01       .0  .017321      .02       .0       .0  .001447
GW    43    1       .0       .0       .0  .003333       .0       .0  .000115
GW    44    1  .003333       .0       .0  .006667       .0       .0   .00023
GW    45    1  .006667       .0       .0      .01       .0       .0  .000287
GW    46    1      .01       .0       .0  .013333       .0       .0  .000322
GW    47    1  .013333       .0       .0  .016667       .0       .0  .000345
GW    48    1  .016667       .0       .0      .02       .0       .0  .000361
GW    49    1       .0       .0       .0  .001667       .0 -.002887  .000115
GW    50    1  .001667       .0 -.002887  .003333       .0 -.005774   .00023
GW    51    1  .003333       .0 -.005774     .005       .0  -.00866  .000287
GW    52    1     .005       .0  -.00866  .006667       .0 -.011547  .000322
GW    53    1  .006667       .0 -.011547  .008333       .0 -.014434  .000345
GW    54    1  .008333       .0 -.014434      .01       .0 -.017321  .000361
GW    55    1       .0       .0       .0 -.001667       .0 -.002887  .000115
GW    56    1 -.001667       .0 -.002887 -.003333       .0 -.005774   .00023
GW    57    1 -.003333       .0 -.005774    -.005       .0  -.00866  .000287
GW    58    1    -.005       .0  -.00866 -.006667       .0 -.011547  .000322
GW    59    1 -.006667       .0 -.011547 -.008333       .0 -.014434  .000345
GW    60    1 -.008333       .0 -.014434     -.01       .0 -.017321  .000361
GW    61    1       .0       .0       .0 -.003333       .0       .0  .000115
GW    62    1 -.003333       .0       .0 -.006667       .0       .0   .00023
GW    63    1 -.006667       .0       .0     -.01       .0       .0  .000287
GW    64    1     -.01       .0       .0 -.013333       .0       .0  .000322
GW    65    1 -.013333       .0       .0 -.016667       .0       .0  .000345
GW    66    1 -.016667       .0       .0     -.02       .0       .0  .000361
GW    67    1       .0       .0       .0 -.001667       .0  .002887  .000115
GW    68    1 -.001667       .0  .002887 -.003333       .0  .005774   .00023
GW    69    1 -.003333       .0  .005774    -.005       .0   .00866  .000287
GW    70    1    -.005       .0   .00866 -.006667       .0  .011547  .000322
GW    71    1 -.006667       .0  .011547 -.008333       .0  .014434  .000345
GW    72    1 -.008333       .0  .014434     -.01       .0  .017321  .000361
GW    73    1       .0       .0       .0  .001667       .0  .002887  .000115
GW    74    1  .001667       .0  .002887  .003333       .0  .005774   .00023
GW    75    1  .003333       .0  .005774     .005       .0   .00866  .000287
GW    76    1     .005       .0   .00866  .006667       .0  .011547  .000322
GW    77    1  .006667       .0  .011547  .008333       .0  .014434  .000345
GW    78    1  .008333       .0  .014434      .01       .0  .017321  .000361
GW    79    1  .003333       .0       .0  .001667       .0 -.002887  .000115
GW    80    1  .001667       .0 -.002887 -.001667       .0 -.002887  .000115
GW    81    1 -.001667       .0 -.002887 -.003333       .0       .0  .000115
GW    82    1 -.003333       .0       .0 -.001667       .0  .002887  .000115
GW    83    1 -.001667       .0  .002887  .001667       .0  .002887  .000115
GW    84    1  .001667       .0  .002887  .003333       .0       .0  .000115
GW    85    1  .006667       .0       .0  .003333       .0 -.005774   .00023
GW    86    1  .003333       .0 -.005774 -.003333       .0 -.005774   .00023
GW    87    1 -.003333       .0 -.005774 -.006667       .0       .0   .00023
GW    88    1 -.006667       .0       .0 -.003333       .0  .005774   .00023
GW    89    1 -.003333       .0  .005774  .003333       .0  .005774   .00023
GW    90    1  .003333       .0  .005774  .006667       .0       .0   .00023
GW    91    1      .01       .0       .0     .005       .0  -.00866  .000287
GW    92    1     .005       .0  -.00866    -.005       .0  -.00866  .000287
GW    93    1    -.005       .0  -.00866     -.01       .0       .0  .000287
GW    94    1     -.01       .0       .0    -.005       .0   .00866  .000287
GW    95    1    -.005       .0   .00866     .005       .0   .00866  .000287
GW    96    1     .005       .0   .00866      .01       .0       .0  .000287
GW    97    1  .013333       .0       .0  .006667       .0 -.011547  .000322
GW    98    1  .006667       .0 -.011547 -.006667       .0 -.011547  .000322
GW    99    1 -.006667       .0 -.011547 -.013333       .0       .0  .000322
GW   100    1 -.013333       .0       .0 -.006667       .0  .011547  .000322
GW   101    1 -.006667       .0  .011547  .006667       .0  .011547  .000322
GW   102    1  .006667       .0  .011547  .013333       .0       .0  .000322
GW   103    1  .016667       .0       .0  .008333       .0 -.014434  .000345
GW   104    1  .008333       .0 -.014434 -.008333       .0 -.014434  .000345
GW   105    1 -.008333       .0 -.014434 -.016667       .0       .0  .000345
GW   106    1 -.016667       .0       .0 -.008333       .0  .014434  .000345
GW   107    1 -.008333       .0  .014434  .008333       .0  .014434  .000345
GW   108    1  .008333       .0  .014434  .016667       .0       .0  .000345
GW   109    1      .02  .016667       .0      .01  .016667 -.017321  .001447
GW   110    1      .01  .016667 -.017321     -.01  .016667 -.017321  .001447
GW   111    1     -.01  .016667 -.017321     -.02  .016667       .0  .001447
GW   112    1     -.02  .016667       .0     -.01  .016667  .017321  .001447
GW   113    1     -.01  .016667  .017321      .01  .016667  .017321  .001447
GW   114    1      .01  .016667  .017321      .02  .016667       .0  .001447
GW   115    1      .02  .033333       .0      .01  .033333 -.017321  .001447
GW   116    1      .01  .033333 -.017321     -.01  .033333 -.017321  .001447
GW   117    1     -.01  .033333 -.017321     -.02  .033333       .0  .001447
GW   118    1     -.02  .033333       .0     -.01  .033333  .017321  .001447
GW   119    1     -.01  .033333  .017321      .01  .033333  .017321  .001447
GW   120    1      .01  .033333  .017321      .02  .033333       .0  .001447
GW   121    1      .02      .05       .0      .01      .05 -.017321  .001447
GW   122    1      .01      .05 -.017321     -.01      .05 -.017321  .001447
GW   123    1     -.01      .05 -.017321     -.02      .05       .0  .001447
GW   124    1     -.02      .05       .0     -.01      .05  .017321  .001447
GW   125    1     -.01      .05  .017321      .01      .05  .017321  .001447
GW   126    1      .01      .05  .017321      .02      .05       .0  .001447
GW   127    1      .02  .066667       .0      .01  .066667 -.017321  .001447
GW   128    1      .01  .066667 -.017321     -.01  .066667 -.017321  .001447
GW   129    1     -.01  .066667 -.017321     -.02  .066667       .0  .001447
GW   130    1     -.02  .066667       .0     -.01  .066667  .017321  .001447
GW   131    1     -.01  .066667  .017321      .01  .066667  .017321  .001447
GW   132    1      .01  .066667  .017321      .02  .066667       .0  .001447
GW   133    1      .02  .083333       .0      .01  .083333 -.017321  .001447
GW   134    1      .01  .083333 -.017321     -.01  .083333 -.017321  .001447
GW   135    1     -.01  .083333 -.017321     -.02  .083333       .0  .001447
GW   136    1     -.02  .083333       .0     -.01  .083333  .017321  .001447
GW   137    1     -.01  .083333  .017321      .01  .083333  .017321  .001447
GW   138    1      .01  .083333  .017321      .02  .083333       .0  .001447
GW   139    1      .02       .1       .0      .01       .1 -.017321  .001447
GW   140    1      .01       .1 -.017321     -.01       .1 -.017321  .001447
GW   141    1     -.01       .1 -.017321     -.02       .1       .0  .001447
GW   142    1     -.02       .1       .0     -.01       .1  .017321  .001447
GW   143    1     -.01       .1  .017321      .01       .1  .017321  .001447
GW   144    1      .01       .1  .017321      .02       .1       .0  .001447
GW   145    1       .0       .1       .0  .003333       .1       .0  .000115
GW   146    1  .003333       .1       .0  .006667       .1       .0   .00023
GW   147    1  .006667       .1       .0      .01       .1       .0  .000287
GW   148    1      .01       .1       .0  .013333       .1       .0  .000322
GW   149    1  .013333       .1       .0  .016667       .1       .0  .000345
GW   150    1  .016667       .1       .0      .02       .1       .0  .000361
GW   151    1       .0       .1       .0  .001667       .1 -.002887  .000115
GW   152    1  .001667       .1 -.002887  .003333       .1 -.005774   .00023
GW   153    1  .003333       .1 -.005774     .005       .1  -.00866  .000287
GW   154    1     .005       .1  -.00866  .006667       .1 -.011547  .000322
GW   155    1  .006667       .1 -.011547  .008333       .1 -.014434  .000345
GW   156    1  .008333       .1 -.014434      .01       .1 -.017321  .000361
GW   157    1       .0       .1       .0 -.001667       .1 -.002887  .000115
GW   158    1 -.001667       .1 -.002887 -.003333       .1 -.005774   .00023
GW   159    1 -.003333       .1 -.005774    -.005       .1  -.00866  .000287
GW   160    1    -.005       .1  -.00866 -.006667       .1 -.011547  .000322
GW   161    1 -.006667       .1 -.011547 -.008333       .1 -.014434  .000345
GW   162    1 -.008333       .1 -.014434     -.01       .1 -.017321  .000361
GW   163    1       .0       .1       .0 -.003333       .1       .0  .000115
GW   164    1 -.003333       .1       .0 -.006667       .1       .0   .00023
GW   165    1 -.006667       .1       .0     -.01       .1       .0  .000287
GW   166    1     -.01       .1       .0 -.013333       .1       .0  .000322
GW   167    1 -.013333       .1       .0 -.016667       .1       .0  .000345
GW   168    1 -.016667       .1       .0     -.02       .1       .0  .000361
GW   169    1       .0       .1       .0 -.001667       .1  .002887  .000115
GW   170    1 -.001667       .1  .002887 -.003333       .1  .005774   .00023
GW   171    1 -.003333       .1  .005774    -.005       .1   .00866  .000287
GW   172    1    -.005       .1   .00866 -.006667       .1  .011547  .000322
GW   173    1 -.006667       .1  .011547 -.008333       .1  .014434  .000345
GW   174    1 -.008333       .1  .014434     -.01       .1  .017321  .000361
GW   175    1       .0       .1       .0  .001667       .1  .002887  .000115
GW   176    1  .001667       .1  .002887  .003333       .1  .005774   .00023
GW   177    1  .003333       .1  .005774     .005       .1   .00866  .000287
GW   178    1     .005       .1   .00866  .006667       .1  .011547  .000322
GW   179    1  .006667       .1  .011547  .008333       .1  .014434  .000345
GW   180    1  .008333       .1  .014434      .01       .1  .017321  .000361
GW   181    1  .003333       .1       .0  .001667       .1 -.002887  .000115
GW   182    1  .001667       .1 -.002887 -.001667       .1 -.002887  .000115
GW   183    1 -.001667       .1 -.002887 -.003333       .1       .0  .000115
GW   184    1 -.003333       .1       .0 -.001667       .1  .002887  .000115
GW   185    1 -.001667       .1  .002887  .001667       .1  .002887  .000115
GW   186    1  .001667       .1  .002887  .003333       .1       .0  .000115
GW   187    1  .006667       .1       .0  .003333       .1 -.005774   .00023
GW   188    1  .003333       .1 -.005774 -.003333       .1 -.005774   .00023
GW   189    1 -.003333       .1 -.005774 -.006667       .1       .0   .00023
GW   190    1 -.006667       .1       .0 -.003333       .1  .005774   .00023
GW   191    1 -.003333       .1  .005774  .003333       .1  .005774   .00023
GW   192    1  .003333       .1  .005774  .006667       .1       .0   .00023
GW   193    1      .01       .1       .0     .005       .1  -.00866  .000287
GW   194    1     .005       .1  -.00866    -.005       .1  -.00866  .000287
GW   195    1    -.005       .1  -.00866     -.01       .1       .0  .000287
GW   196    1     -.01       .1       .0    -.005       .1   .00866  .000287
GW   197    1    -.005       .1   .00866     .005       .1   .00866  .000287
GW   198    1     .005       .1   .00866      .01       .1       .0  .000287
GW   199    1  .013333       .1       .0  .006667       .1 -.011547  .000322
GW   200    1  .006667       .1 -.011547 -.006667       .1 -.011547  .000322
GW   201    1 -.006667       .1 -.011547 -.013333       .1       .0  .000322
GW   202    1 -.013333       .1       .0 -.006667       .1  .011547  .000322
GW   203    1 -.006667       .1  .011547  .006667       .1  .011547  .000322
GW   204    1  .006667       .1  .011547  .013333       .1       .0  .000322
GW   205    1  .016667       .1       .0  .008333       .1 -.014434  .000345
GW   206    1  .008333       .1 -.014434 -.008333       .1 -.014434  .000345
GW   207    1 -.008333       .1 -.014434 -.016667       .1       .0  .000345
GW   208    1 -.016667       .1       .0 -.008333       .1  .014434  .000345
GW   209    1 -.008333       .1  .014434  .008333       .1  .014434  .000345
GW   210    1  .008333       .1  .014434  .016667       .1       .0  .000345
GE 0
