CM Length L in mtr. = 5
CM Radius R1 in cm. = 100
CM Radius R2 in cm. = 100
CM Start angle A1 = 0
CM Stop angle A2 = 360
CM Straight sections = 24
CM Circular sections = 30
CM Radial sections = 5
CM Rotate X, Y, Z = 0, -90, 0
CM Move X, Y, Z = 0, 0, 0
CE
SY len=1.2295	'Symbol: Length for WL/2
GW	1	19	0	-len/2	1.1	0	len/2	1.1	.0001
GW	2	1	2.5	0	1.0	2.292	0	1.0	.0001
GW	3	1	2.292	0	1.0	2.083	0	1.0	.0001
GW	4	1	2.083	0	1.0	1.875	0	1.0	.0001
GW	5	1	1.875	0	1.0	1.667	0	1.0	.0001
GW	6	1	1.667	0	1.0	1.458	0	1.0	.0001
GW	7	1	1.458	0	1.0	1.25	0	1.0	.0001
GW	8	1	1.25	0	1.0	1.042	0	1.0	.0001
GW	9	1	1.042	0	1.0	.833333	0	1.0	.0001
GW	10	1	.833333	0	1.0	.625	0	1.0	.0001
GW	11	1	.625	0	1.0	.416667	0	1.0	.0001
GW	12	1	.416667	0	1.0	.208333	0	1.0	.0001
GW	13	1	.208333	0	1.0	0	0	1.0	.0001
GW	14	1	0	0	1.0	-.208333	0	1.0	.0001
GW	15	1	-.208333	0	1.0	-.416667	0	1.0	.0001
GW	16	1	-.416667	0	1.0	-.625	0	1.0	.0001
GW	17	1	-.625	0	1.0	-.833333	0	1.0	.0001
GW	18	1	-.833333	0	1.0	-1.042	0	1.0	.0001
GW	19	1	-1.042	0	1.0	-1.25	0	1.0	.0001
GW	20	1	-1.25	0	1.0	-1.458	0	1.0	.0001
GW	21	1	-1.458	0	1.0	-1.667	0	1.0	.0001
GW	22	1	-1.667	0	1.0	-1.875	0	1.0	.0001
GW	23	1	-1.875	0	1.0	-2.083	0	1.0	.0001
GW	24	1	-2.083	0	1.0	-2.292	0	1.0	.0001
GW	25	1	-2.292	0	1.0	-2.5	0	1.0	.0001
GW	26	1	2.5	.207912	.978148	2.292	.207912	.978148	.0001
GW	27	1	2.292	.207912	.978148	2.083	.207912	.978148	.0001
GW	28	1	2.083	.207912	.978148	1.875	.207912	.978148	.0001
GW	29	1	1.875	.207912	.978148	1.667	.207912	.978148	.0001
GW	30	1	1.667	.207912	.978148	1.458	.207912	.978148	.0001
GW	31	1	1.458	.207912	.978148	1.25	.207912	.978148	.0001
GW	32	1	1.25	.207912	.978148	1.042	.207912	.978148	.0001
GW	33	1	1.042	.207912	.978148	.833333	.207912	.978148	.0001
GW	34	1	.833333	.207912	.978148	.625	.207912	.978148	.0001
GW	35	1	.625	.207912	.978148	.416667	.207912	.978148	.0001
GW	36	1	.416667	.207912	.978148	.208333	.207912	.978148	.0001
GW	37	1	.208333	.207912	.978148	0	.207912	.978148	.0001
GW	38	1	0	.207912	.978148	-.208333	.207912	.978148	.0001
GW	39	1	-.208333	.207912	.978148	-.416667	.207912	.978148	.0001
GW	40	1	-.416667	.207912	.978148	-.625	.207912	.978148	.0001
GW	41	1	-.625	.207912	.978148	-.833333	.207912	.978148	.0001
GW	42	1	-.833333	.207912	.978148	-1.042	.207912	.978148	.0001
GW	43	1	-1.042	.207912	.978148	-1.25	.207912	.978148	.0001
GW	44	1	-1.25	.207912	.978148	-1.458	.207912	.978148	.0001
GW	45	1	-1.458	.207912	.978148	-1.667	.207912	.978148	.0001
GW	46	1	-1.667	.207912	.978148	-1.875	.207912	.978148	.0001
GW	47	1	-1.875	.207912	.978148	-2.083	.207912	.978148	.0001
GW	48	1	-2.083	.207912	.978148	-2.292	.207912	.978148	.0001
GW	49	1	-2.292	.207912	.978148	-2.5	.207912	.978148	.0001
GW	50	1	2.5	.406737	.913545	2.292	.406737	.913545	.0001
GW	51	1	2.292	.406737	.913545	2.083	.406737	.913545	.0001
GW	52	1	2.083	.406737	.913545	1.875	.406737	.913545	.0001
GW	53	1	1.875	.406737	.913545	1.667	.406737	.913545	.0001
GW	54	1	1.667	.406737	.913545	1.458	.406737	.913545	.0001
GW	55	1	1.458	.406737	.913545	1.25	.406737	.913545	.0001
GW	56	1	1.25	.406737	.913545	1.042	.406737	.913545	.0001
GW	57	1	1.042	.406737	.913545	.833333	.406737	.913545	.0001
GW	58	1	.833333	.406737	.913545	.625	.406737	.913545	.0001
GW	59	1	.625	.406737	.913545	.416667	.406737	.913545	.0001
GW	60	1	.416667	.406737	.913545	.208333	.406737	.913545	.0001
GW	61	1	.208333	.406737	.913545	0	.406737	.913545	.0001
GW	62	1	0	.406737	.913545	-.208333	.406737	.913545	.0001
GW	63	1	-.208333	.406737	.913545	-.416667	.406737	.913545	.0001
GW	64	1	-.416667	.406737	.913545	-.625	.406737	.913545	.0001
GW	65	1	-.625	.406737	.913545	-.833333	.406737	.913545	.0001
GW	66	1	-.833333	.406737	.913545	-1.042	.406737	.913545	.0001
GW	67	1	-1.042	.406737	.913545	-1.25	.406737	.913545	.0001
GW	68	1	-1.25	.406737	.913545	-1.458	.406737	.913545	.0001
GW	69	1	-1.458	.406737	.913545	-1.667	.406737	.913545	.0001
GW	70	1	-1.667	.406737	.913545	-1.875	.406737	.913545	.0001
GW	71	1	-1.875	.406737	.913545	-2.083	.406737	.913545	.0001
GW	72	1	-2.083	.406737	.913545	-2.292	.406737	.913545	.0001
GW	73	1	-2.292	.406737	.913545	-2.5	.406737	.913545	.0001
GW	74	1	2.5	.587785	.809017	2.292	.587785	.809017	.0001
GW	75	1	2.292	.587785	.809017	2.083	.587785	.809017	.0001
GW	76	1	2.083	.587785	.809017	1.875	.587785	.809017	.0001
GW	77	1	1.875	.587785	.809017	1.667	.587785	.809017	.0001
GW	78	1	1.667	.587785	.809017	1.458	.587785	.809017	.0001
GW	79	1	1.458	.587785	.809017	1.25	.587785	.809017	.0001
GW	80	1	1.25	.587785	.809017	1.042	.587785	.809017	.0001
GW	81	1	1.042	.587785	.809017	.833333	.587785	.809017	.0001
GW	82	1	.833333	.587785	.809017	.625	.587785	.809017	.0001
GW	83	1	.625	.587785	.809017	.416667	.587785	.809017	.0001
GW	84	1	.416667	.587785	.809017	.208333	.587785	.809017	.0001
GW	85	1	.208333	.587785	.809017	0	.587785	.809017	.0001
GW	86	1	0	.587785	.809017	-.208333	.587785	.809017	.0001
GW	87	1	-.208333	.587785	.809017	-.416667	.587785	.809017	.0001
GW	88	1	-.416667	.587785	.809017	-.625	.587785	.809017	.0001
GW	89	1	-.625	.587785	.809017	-.833333	.587785	.809017	.0001
GW	90	1	-.833333	.587785	.809017	-1.042	.587785	.809017	.0001
GW	91	1	-1.042	.587785	.809017	-1.25	.587785	.809017	.0001
GW	92	1	-1.25	.587785	.809017	-1.458	.587785	.809017	.0001
GW	93	1	-1.458	.587785	.809017	-1.667	.587785	.809017	.0001
GW	94	1	-1.667	.587785	.809017	-1.875	.587785	.809017	.0001
GW	95	1	-1.875	.587785	.809017	-2.083	.587785	.809017	.0001
GW	96	1	-2.083	.587785	.809017	-2.292	.587785	.809017	.0001
GW	97	1	-2.292	.587785	.809017	-2.5	.587785	.809017	.0001
GW	98	1	2.5	.743145	.669131	2.292	.743145	.669131	.0001
GW	99	1	2.292	.743145	.669131	2.083	.743145	.669131	.0001
GW	100	1	2.083	.743145	.669131	1.875	.743145	.669131	.0001
GW	101	1	1.875	.743145	.669131	1.667	.743145	.669131	.0001
GW	102	1	1.667	.743145	.669131	1.458	.743145	.669131	.0001
GW	103	1	1.458	.743145	.669131	1.25	.743145	.669131	.0001
GW	104	1	1.25	.743145	.669131	1.042	.743145	.669131	.0001
GW	105	1	1.042	.743145	.669131	.833333	.743145	.669131	.0001
GW	106	1	.833333	.743145	.669131	.625	.743145	.669131	.0001
GW	107	1	.625	.743145	.669131	.416667	.743145	.669131	.0001
GW	108	1	.416667	.743145	.669131	.208333	.743145	.669131	.0001
GW	109	1	.208333	.743145	.669131	0	.743145	.669131	.0001
GW	110	1	0	.743145	.669131	-.208333	.743145	.669131	.0001
GW	111	1	-.208333	.743145	.669131	-.416667	.743145	.669131	.0001
GW	112	1	-.416667	.743145	.669131	-.625	.743145	.669131	.0001
GW	113	1	-.625	.743145	.669131	-.833333	.743145	.669131	.0001
GW	114	1	-.833333	.743145	.669131	-1.042	.743145	.669131	.0001
GW	115	1	-1.042	.743145	.669131	-1.25	.743145	.669131	.0001
GW	116	1	-1.25	.743145	.669131	-1.458	.743145	.669131	.0001
GW	117	1	-1.458	.743145	.669131	-1.667	.743145	.669131	.0001
GW	118	1	-1.667	.743145	.669131	-1.875	.743145	.669131	.0001
GW	119	1	-1.875	.743145	.669131	-2.083	.743145	.669131	.0001
GW	120	1	-2.083	.743145	.669131	-2.292	.743145	.669131	.0001
GW	121	1	-2.292	.743145	.669131	-2.5	.743145	.669131	.0001
GW	122	1	2.5	.866025	.5	2.292	.866025	.5	.0001
GW	123	1	2.292	.866025	.5	2.083	.866025	.5	.0001
GW	124	1	2.083	.866025	.5	1.875	.866025	.5	.0001
GW	125	1	1.875	.866025	.5	1.667	.866025	.5	.0001
GW	126	1	1.667	.866025	.5	1.458	.866025	.5	.0001
GW	127	1	1.458	.866025	.5	1.25	.866025	.5	.0001
GW	128	1	1.25	.866025	.5	1.042	.866025	.5	.0001
GW	129	1	1.042	.866025	.5	.833333	.866025	.5	.0001
GW	130	1	.833333	.866025	.5	.625	.866025	.5	.0001
GW	131	1	.625	.866025	.5	.416667	.866025	.5	.0001
GW	132	1	.416667	.866025	.5	.208333	.866025	.5	.0001
GW	133	1	.208333	.866025	.5	0	.866025	.5	.0001
GW	134	1	0	.866025	.5	-.208333	.866025	.5	.0001
GW	135	1	-.208333	.866025	.5	-.416667	.866025	.5	.0001
GW	136	1	-.416667	.866025	.5	-.625	.866025	.5	.0001
GW	137	1	-.625	.866025	.5	-.833333	.866025	.5	.0001
GW	138	1	-.833333	.866025	.5	-1.042	.866025	.5	.0001
GW	139	1	-1.042	.866025	.5	-1.25	.866025	.5	.0001
GW	140	1	-1.25	.866025	.5	-1.458	.866025	.5	.0001
GW	141	1	-1.458	.866025	.5	-1.667	.866025	.5	.0001
GW	142	1	-1.667	.866025	.5	-1.875	.866025	.5	.0001
GW	143	1	-1.875	.866025	.5	-2.083	.866025	.5	.0001
GW	144	1	-2.083	.866025	.5	-2.292	.866025	.5	.0001
GW	145	1	-2.292	.866025	.5	-2.5	.866025	.5	.0001
GW	146	1	2.5	.951057	.309017	2.292	.951057	.309017	.0001
GW	147	1	2.292	.951057	.309017	2.083	.951057	.309017	.0001
GW	148	1	2.083	.951057	.309017	1.875	.951057	.309017	.0001
GW	149	1	1.875	.951057	.309017	1.667	.951057	.309017	.0001
GW	150	1	1.667	.951057	.309017	1.458	.951057	.309017	.0001
GW	151	1	1.458	.951057	.309017	1.25	.951057	.309017	.0001
GW	152	1	1.25	.951057	.309017	1.042	.951057	.309017	.0001
GW	153	1	1.042	.951057	.309017	.833333	.951057	.309017	.0001
GW	154	1	.833333	.951057	.309017	.625	.951057	.309017	.0001
GW	155	1	.625	.951057	.309017	.416667	.951057	.309017	.0001
GW	156	1	.416667	.951057	.309017	.208333	.951057	.309017	.0001
GW	157	1	.208333	.951057	.309017	0	.951057	.309017	.0001
GW	158	1	0	.951057	.309017	-.208333	.951057	.309017	.0001
GW	159	1	-.208333	.951057	.309017	-.416667	.951057	.309017	.0001
GW	160	1	-.416667	.951057	.309017	-.625	.951057	.309017	.0001
GW	161	1	-.625	.951057	.309017	-.833333	.951057	.309017	.0001
GW	162	1	-.833333	.951057	.309017	-1.042	.951057	.309017	.0001
GW	163	1	-1.042	.951057	.309017	-1.25	.951057	.309017	.0001
GW	164	1	-1.25	.951057	.309017	-1.458	.951057	.309017	.0001
GW	165	1	-1.458	.951057	.309017	-1.667	.951057	.309017	.0001
GW	166	1	-1.667	.951057	.309017	-1.875	.951057	.309017	.0001
GW	167	1	-1.875	.951057	.309017	-2.083	.951057	.309017	.0001
GW	168	1	-2.083	.951057	.309017	-2.292	.951057	.309017	.0001
GW	169	1	-2.292	.951057	.309017	-2.5	.951057	.309017	.0001
GW	170	1	2.5	.994522	.104528	2.292	.994522	.104528	.0001
GW	171	1	2.292	.994522	.104528	2.083	.994522	.104528	.0001
GW	172	1	2.083	.994522	.104528	1.875	.994522	.104528	.0001
GW	173	1	1.875	.994522	.104528	1.667	.994522	.104528	.0001
GW	174	1	1.667	.994522	.104528	1.458	.994522	.104528	.0001
GW	175	1	1.458	.994522	.104528	1.25	.994522	.104528	.0001
GW	176	1	1.25	.994522	.104528	1.042	.994522	.104528	.0001
GW	177	1	1.042	.994522	.104528	.833333	.994522	.104528	.0001
GW	178	1	.833333	.994522	.104528	.625	.994522	.104528	.0001
GW	179	1	.625	.994522	.104528	.416667	.994522	.104528	.0001
GW	180	1	.416667	.994522	.104528	.208333	.994522	.104528	.0001
GW	181	1	.208333	.994522	.104528	0	.994522	.104528	.0001
GW	182	1	0	.994522	.104528	-.208333	.994522	.104528	.0001
GW	183	1	-.208333	.994522	.104528	-.416667	.994522	.104528	.0001
GW	184	1	-.416667	.994522	.104528	-.625	.994522	.104528	.0001
GW	185	1	-.625	.994522	.104528	-.833333	.994522	.104528	.0001
GW	186	1	-.833333	.994522	.104528	-1.042	.994522	.104528	.0001
GW	187	1	-1.042	.994522	.104528	-1.25	.994522	.104528	.0001
GW	188	1	-1.25	.994522	.104528	-1.458	.994522	.104528	.0001
GW	189	1	-1.458	.994522	.104528	-1.667	.994522	.104528	.0001
GW	190	1	-1.667	.994522	.104528	-1.875	.994522	.104528	.0001
GW	191	1	-1.875	.994522	.104528	-2.083	.994522	.104528	.0001
GW	192	1	-2.083	.994522	.104528	-2.292	.994522	.104528	.0001
GW	193	1	-2.292	.994522	.104528	-2.5	.994522	.104528	.0001
GW	194	1	2.5	.994522	-.104528	2.292	.994522	-.104528	.0001
GW	195	1	2.292	.994522	-.104528	2.083	.994522	-.104528	.0001
GW	196	1	2.083	.994522	-.104528	1.875	.994522	-.104528	.0001
GW	197	1	1.875	.994522	-.104528	1.667	.994522	-.104528	.0001
GW	198	1	1.667	.994522	-.104528	1.458	.994522	-.104528	.0001
GW	199	1	1.458	.994522	-.104528	1.25	.994522	-.104528	.0001
GW	200	1	1.25	.994522	-.104528	1.042	.994522	-.104528	.0001
GW	201	1	1.042	.994522	-.104528	.833333	.994522	-.104528	.0001
GW	202	1	.833333	.994522	-.104528	.625	.994522	-.104528	.0001
GW	203	1	.625	.994522	-.104528	.416667	.994522	-.104528	.0001
GW	204	1	.416667	.994522	-.104528	.208333	.994522	-.104528	.0001
GW	205	1	.208333	.994522	-.104528	0	.994522	-.104528	.0001
GW	206	1	0	.994522	-.104528	-.208333	.994522	-.104528	.0001
GW	207	1	-.208333	.994522	-.104528	-.416667	.994522	-.104528	.0001
GW	208	1	-.416667	.994522	-.104528	-.625	.994522	-.104528	.0001
GW	209	1	-.625	.994522	-.104528	-.833333	.994522	-.104528	.0001
GW	210	1	-.833333	.994522	-.104528	-1.042	.994522	-.104528	.0001
GW	211	1	-1.042	.994522	-.104528	-1.25	.994522	-.104528	.0001
GW	212	1	-1.25	.994522	-.104528	-1.458	.994522	-.104528	.0001
GW	213	1	-1.458	.994522	-.104528	-1.667	.994522	-.104528	.0001
GW	214	1	-1.667	.994522	-.104528	-1.875	.994522	-.104528	.0001
GW	215	1	-1.875	.994522	-.104528	-2.083	.994522	-.104528	.0001
GW	216	1	-2.083	.994522	-.104528	-2.292	.994522	-.104528	.0001
GW	217	1	-2.292	.994522	-.104528	-2.5	.994522	-.104528	.0001
GW	218	1	2.5	.951057	-.309017	2.292	.951057	-.309017	.0001
GW	219	1	2.292	.951057	-.309017	2.083	.951057	-.309017	.0001
GW	220	1	2.083	.951057	-.309017	1.875	.951057	-.309017	.0001
GW	221	1	1.875	.951057	-.309017	1.667	.951057	-.309017	.0001
GW	222	1	1.667	.951057	-.309017	1.458	.951057	-.309017	.0001
GW	223	1	1.458	.951057	-.309017	1.25	.951057	-.309017	.0001
GW	224	1	1.25	.951057	-.309017	1.042	.951057	-.309017	.0001
GW	225	1	1.042	.951057	-.309017	.833333	.951057	-.309017	.0001
GW	226	1	.833333	.951057	-.309017	.625	.951057	-.309017	.0001
GW	227	1	.625	.951057	-.309017	.416667	.951057	-.309017	.0001
GW	228	1	.416667	.951057	-.309017	.208333	.951057	-.309017	.0001
GW	229	1	.208333	.951057	-.309017	0	.951057	-.309017	.0001
GW	230	1	0	.951057	-.309017	-.208333	.951057	-.309017	.0001
GW	231	1	-.208333	.951057	-.309017	-.416667	.951057	-.309017	.0001
GW	232	1	-.416667	.951057	-.309017	-.625	.951057	-.309017	.0001
GW	233	1	-.625	.951057	-.309017	-.833333	.951057	-.309017	.0001
GW	234	1	-.833333	.951057	-.309017	-1.042	.951057	-.309017	.0001
GW	235	1	-1.042	.951057	-.309017	-1.25	.951057	-.309017	.0001
GW	236	1	-1.25	.951057	-.309017	-1.458	.951057	-.309017	.0001
GW	237	1	-1.458	.951057	-.309017	-1.667	.951057	-.309017	.0001
GW	238	1	-1.667	.951057	-.309017	-1.875	.951057	-.309017	.0001
GW	239	1	-1.875	.951057	-.309017	-2.083	.951057	-.309017	.0001
GW	240	1	-2.083	.951057	-.309017	-2.292	.951057	-.309017	.0001
GW	241	1	-2.292	.951057	-.309017	-2.5	.951057	-.309017	.0001
GW	242	1	2.5	.866025	-.5	2.292	.866025	-.5	.0001
GW	243	1	2.292	.866025	-.5	2.083	.866025	-.5	.0001
GW	244	1	2.083	.866025	-.5	1.875	.866025	-.5	.0001
GW	245	1	1.875	.866025	-.5	1.667	.866025	-.5	.0001
GW	246	1	1.667	.866025	-.5	1.458	.866025	-.5	.0001
GW	247	1	1.458	.866025	-.5	1.25	.866025	-.5	.0001
GW	248	1	1.25	.866025	-.5	1.042	.866025	-.5	.0001
GW	249	1	1.042	.866025	-.5	.833333	.866025	-.5	.0001
GW	250	1	.833333	.866025	-.5	.625	.866025	-.5	.0001
GW	251	1	.625	.866025	-.5	.416667	.866025	-.5	.0001
GW	252	1	.416667	.866025	-.5	.208333	.866025	-.5	.0001
GW	253	1	.208333	.866025	-.5	0	.866025	-.5	.0001
GW	254	1	0	.866025	-.5	-.208333	.866025	-.5	.0001
GW	255	1	-.208333	.866025	-.5	-.416667	.866025	-.5	.0001
GW	256	1	-.416667	.866025	-.5	-.625	.866025	-.5	.0001
GW	257	1	-.625	.866025	-.5	-.833333	.866025	-.5	.0001
GW	258	1	-.833333	.866025	-.5	-1.042	.866025	-.5	.0001
GW	259	1	-1.042	.866025	-.5	-1.25	.866025	-.5	.0001
GW	260	1	-1.25	.866025	-.5	-1.458	.866025	-.5	.0001
GW	261	1	-1.458	.866025	-.5	-1.667	.866025	-.5	.0001
GW	262	1	-1.667	.866025	-.5	-1.875	.866025	-.5	.0001
GW	263	1	-1.875	.866025	-.5	-2.083	.866025	-.5	.0001
GW	264	1	-2.083	.866025	-.5	-2.292	.866025	-.5	.0001
GW	265	1	-2.292	.866025	-.5	-2.5	.866025	-.5	.0001
GW	266	1	2.5	.743145	-.669131	2.292	.743145	-.669131	.0001
GW	267	1	2.292	.743145	-.669131	2.083	.743145	-.669131	.0001
GW	268	1	2.083	.743145	-.669131	1.875	.743145	-.669131	.0001
GW	269	1	1.875	.743145	-.669131	1.667	.743145	-.669131	.0001
GW	270	1	1.667	.743145	-.669131	1.458	.743145	-.669131	.0001
GW	271	1	1.458	.743145	-.669131	1.25	.743145	-.669131	.0001
GW	272	1	1.25	.743145	-.669131	1.042	.743145	-.669131	.0001
GW	273	1	1.042	.743145	-.669131	.833333	.743145	-.669131	.0001
GW	274	1	.833333	.743145	-.669131	.625	.743145	-.669131	.0001
GW	275	1	.625	.743145	-.669131	.416667	.743145	-.669131	.0001
GW	276	1	.416667	.743145	-.669131	.208333	.743145	-.669131	.0001
GW	277	1	.208333	.743145	-.669131	0	.743145	-.669131	.0001
GW	278	1	0	.743145	-.669131	-.208333	.743145	-.669131	.0001
GW	279	1	-.208333	.743145	-.669131	-.416667	.743145	-.669131	.0001
GW	280	1	-.416667	.743145	-.669131	-.625	.743145	-.669131	.0001
GW	281	1	-.625	.743145	-.669131	-.833333	.743145	-.669131	.0001
GW	282	1	-.833333	.743145	-.669131	-1.042	.743145	-.669131	.0001
GW	283	1	-1.042	.743145	-.669131	-1.25	.743145	-.669131	.0001
GW	284	1	-1.25	.743145	-.669131	-1.458	.743145	-.669131	.0001
GW	285	1	-1.458	.743145	-.669131	-1.667	.743145	-.669131	.0001
GW	286	1	-1.667	.743145	-.669131	-1.875	.743145	-.669131	.0001
GW	287	1	-1.875	.743145	-.669131	-2.083	.743145	-.669131	.0001
GW	288	1	-2.083	.743145	-.669131	-2.292	.743145	-.669131	.0001
GW	289	1	-2.292	.743145	-.669131	-2.5	.743145	-.669131	.0001
GW	290	1	2.5	.587785	-.809017	2.292	.587785	-.809017	.0001
GW	291	1	2.292	.587785	-.809017	2.083	.587785	-.809017	.0001
GW	292	1	2.083	.587785	-.809017	1.875	.587785	-.809017	.0001
GW	293	1	1.875	.587785	-.809017	1.667	.587785	-.809017	.0001
GW	294	1	1.667	.587785	-.809017	1.458	.587785	-.809017	.0001
GW	295	1	1.458	.587785	-.809017	1.25	.587785	-.809017	.0001
GW	296	1	1.25	.587785	-.809017	1.042	.587785	-.809017	.0001
GW	297	1	1.042	.587785	-.809017	.833333	.587785	-.809017	.0001
GW	298	1	.833333	.587785	-.809017	.625	.587785	-.809017	.0001
GW	299	1	.625	.587785	-.809017	.416667	.587785	-.809017	.0001
GW	300	1	.416667	.587785	-.809017	.208333	.587785	-.809017	.0001
GW	301	1	.208333	.587785	-.809017	0	.587785	-.809017	.0001
GW	302	1	0	.587785	-.809017	-.208333	.587785	-.809017	.0001
GW	303	1	-.208333	.587785	-.809017	-.416667	.587785	-.809017	.0001
GW	304	1	-.416667	.587785	-.809017	-.625	.587785	-.809017	.0001
GW	305	1	-.625	.587785	-.809017	-.833333	.587785	-.809017	.0001
GW	306	1	-.833333	.587785	-.809017	-1.042	.587785	-.809017	.0001
GW	307	1	-1.042	.587785	-.809017	-1.25	.587785	-.809017	.0001
GW	308	1	-1.25	.587785	-.809017	-1.458	.587785	-.809017	.0001
GW	309	1	-1.458	.587785	-.809017	-1.667	.587785	-.809017	.0001
GW	310	1	-1.667	.587785	-.809017	-1.875	.587785	-.809017	.0001
GW	311	1	-1.875	.587785	-.809017	-2.083	.587785	-.809017	.0001
GW	312	1	-2.083	.587785	-.809017	-2.292	.587785	-.809017	.0001
GW	313	1	-2.292	.587785	-.809017	-2.5	.587785	-.809017	.0001
GW	314	1	2.5	.406737	-.913545	2.292	.406737	-.913545	.0001
GW	315	1	2.292	.406737	-.913545	2.083	.406737	-.913545	.0001
GW	316	1	2.083	.406737	-.913545	1.875	.406737	-.913545	.0001
GW	317	1	1.875	.406737	-.913545	1.667	.406737	-.913545	.0001
GW	318	1	1.667	.406737	-.913545	1.458	.406737	-.913545	.0001
GW	319	1	1.458	.406737	-.913545	1.25	.406737	-.913545	.0001
GW	320	1	1.25	.406737	-.913545	1.042	.406737	-.913545	.0001
GW	321	1	1.042	.406737	-.913545	.833333	.406737	-.913545	.0001
GW	322	1	.833333	.406737	-.913545	.625	.406737	-.913545	.0001
GW	323	1	.625	.406737	-.913545	.416667	.406737	-.913545	.0001
GW	324	1	.416667	.406737	-.913545	.208333	.406737	-.913545	.0001
GW	325	1	.208333	.406737	-.913545	0	.406737	-.913545	.0001
GW	326	1	0	.406737	-.913545	-.208333	.406737	-.913545	.0001
GW	327	1	-.208333	.406737	-.913545	-.416667	.406737	-.913545	.0001
GW	328	1	-.416667	.406737	-.913545	-.625	.406737	-.913545	.0001
GW	329	1	-.625	.406737	-.913545	-.833333	.406737	-.913545	.0001
GW	330	1	-.833333	.406737	-.913545	-1.042	.406737	-.913545	.0001
GW	331	1	-1.042	.406737	-.913545	-1.25	.406737	-.913545	.0001
GW	332	1	-1.25	.406737	-.913545	-1.458	.406737	-.913545	.0001
GW	333	1	-1.458	.406737	-.913545	-1.667	.406737	-.913545	.0001
GW	334	1	-1.667	.406737	-.913545	-1.875	.406737	-.913545	.0001
GW	335	1	-1.875	.406737	-.913545	-2.083	.406737	-.913545	.0001
GW	336	1	-2.083	.406737	-.913545	-2.292	.406737	-.913545	.0001
GW	337	1	-2.292	.406737	-.913545	-2.5	.406737	-.913545	.0001
GW	338	1	2.5	.207912	-.978148	2.292	.207912	-.978148	.0001
GW	339	1	2.292	.207912	-.978148	2.083	.207912	-.978148	.0001
GW	340	1	2.083	.207912	-.978148	1.875	.207912	-.978148	.0001
GW	341	1	1.875	.207912	-.978148	1.667	.207912	-.978148	.0001
GW	342	1	1.667	.207912	-.978148	1.458	.207912	-.978148	.0001
GW	343	1	1.458	.207912	-.978148	1.25	.207912	-.978148	.0001
GW	344	1	1.25	.207912	-.978148	1.042	.207912	-.978148	.0001
GW	345	1	1.042	.207912	-.978148	.833333	.207912	-.978148	.0001
GW	346	1	.833333	.207912	-.978148	.625	.207912	-.978148	.0001
GW	347	1	.625	.207912	-.978148	.416667	.207912	-.978148	.0001
GW	348	1	.416667	.207912	-.978148	.208333	.207912	-.978148	.0001
GW	349	1	.208333	.207912	-.978148	0	.207912	-.978148	.0001
GW	350	1	0	.207912	-.978148	-.208333	.207912	-.978148	.0001
GW	351	1	-.208333	.207912	-.978148	-.416667	.207912	-.978148	.0001
GW	352	1	-.416667	.207912	-.978148	-.625	.207912	-.978148	.0001
GW	353	1	-.625	.207912	-.978148	-.833333	.207912	-.978148	.0001
GW	354	1	-.833333	.207912	-.978148	-1.042	.207912	-.978148	.0001
GW	355	1	-1.042	.207912	-.978148	-1.25	.207912	-.978148	.0001
GW	356	1	-1.25	.207912	-.978148	-1.458	.207912	-.978148	.0001
GW	357	1	-1.458	.207912	-.978148	-1.667	.207912	-.978148	.0001
GW	358	1	-1.667	.207912	-.978148	-1.875	.207912	-.978148	.0001
GW	359	1	-1.875	.207912	-.978148	-2.083	.207912	-.978148	.0001
GW	360	1	-2.083	.207912	-.978148	-2.292	.207912	-.978148	.0001
GW	361	1	-2.292	.207912	-.978148	-2.5	.207912	-.978148	.0001
GW	362	1	2.5	0	-1.0	2.292	0	-1.0	.0001
GW	363	1	2.292	0	-1.0	2.083	0	-1.0	.0001
GW	364	1	2.083	0	-1.0	1.875	0	-1.0	.0001
GW	365	1	1.875	0	-1.0	1.667	0	-1.0	.0001
GW	366	1	1.667	0	-1.0	1.458	0	-1.0	.0001
GW	367	1	1.458	0	-1.0	1.25	0	-1.0	.0001
GW	368	1	1.25	0	-1.0	1.042	0	-1.0	.0001
GW	369	1	1.042	0	-1.0	.833333	0	-1.0	.0001
GW	370	1	.833333	0	-1.0	.625	0	-1.0	.0001
GW	371	1	.625	0	-1.0	.416667	0	-1.0	.0001
GW	372	1	.416667	0	-1.0	.208333	0	-1.0	.0001
GW	373	1	.208333	0	-1.0	0	0	-1.0	.0001
GW	374	1	0	0	-1.0	-.208333	0	-1.0	.0001
GW	375	1	-.208333	0	-1.0	-.416667	0	-1.0	.0001
GW	376	1	-.416667	0	-1.0	-.625	0	-1.0	.0001
GW	377	1	-.625	0	-1.0	-.833333	0	-1.0	.0001
GW	378	1	-.833333	0	-1.0	-1.042	0	-1.0	.0001
GW	379	1	-1.042	0	-1.0	-1.25	0	-1.0	.0001
GW	380	1	-1.25	0	-1.0	-1.458	0	-1.0	.0001
GW	381	1	-1.458	0	-1.0	-1.667	0	-1.0	.0001
GW	382	1	-1.667	0	-1.0	-1.875	0	-1.0	.0001
GW	383	1	-1.875	0	-1.0	-2.083	0	-1.0	.0001
GW	384	1	-2.083	0	-1.0	-2.292	0	-1.0	.0001
GW	385	1	-2.292	0	-1.0	-2.5	0	-1.0	.0001
GW	386	1	2.5	-.207912	-.978148	2.292	-.207912	-.978148	.0001
GW	387	1	2.292	-.207912	-.978148	2.083	-.207912	-.978148	.0001
GW	388	1	2.083	-.207912	-.978148	1.875	-.207912	-.978148	.0001
GW	389	1	1.875	-.207912	-.978148	1.667	-.207912	-.978148	.0001
GW	390	1	1.667	-.207912	-.978148	1.458	-.207912	-.978148	.0001
GW	391	1	1.458	-.207912	-.978148	1.25	-.207912	-.978148	.0001
GW	392	1	1.25	-.207912	-.978148	1.042	-.207912	-.978148	.0001
GW	393	1	1.042	-.207912	-.978148	.833333	-.207912	-.978148	.0001
GW	394	1	.833333	-.207912	-.978148	.625	-.207912	-.978148	.0001
GW	395	1	.625	-.207912	-.978148	.416667	-.207912	-.978148	.0001
GW	396	1	.416667	-.207912	-.978148	.208333	-.207912	-.978148	.0001
GW	397	1	.208333	-.207912	-.978148	0	-.207912	-.978148	.0001
GW	398	1	0	-.207912	-.978148	-.208333	-.207912	-.978148	.0001
GW	399	1	-.208333	-.207912	-.978148	-.416667	-.207912	-.978148	.0001
GW	400	1	-.416667	-.207912	-.978148	-.625	-.207912	-.978148	.0001
GW	401	1	-.625	-.207912	-.978148	-.833333	-.207912	-.978148	.0001
GW	402	1	-.833333	-.207912	-.978148	-1.042	-.207912	-.978148	.0001
GW	403	1	-1.042	-.207912	-.978148	-1.25	-.207912	-.978148	.0001
GW	404	1	-1.25	-.207912	-.978148	-1.458	-.207912	-.978148	.0001
GW	405	1	-1.458	-.207912	-.978148	-1.667	-.207912	-.978148	.0001
GW	406	1	-1.667	-.207912	-.978148	-1.875	-.207912	-.978148	.0001
GW	407	1	-1.875	-.207912	-.978148	-2.083	-.207912	-.978148	.0001
GW	408	1	-2.083	-.207912	-.978148	-2.292	-.207912	-.978148	.0001
GW	409	1	-2.292	-.207912	-.978148	-2.5	-.207912	-.978148	.0001
GW	410	1	2.5	-.406737	-.913545	2.292	-.406737	-.913545	.0001
GW	411	1	2.292	-.406737	-.913545	2.083	-.406737	-.913545	.0001
GW	412	1	2.083	-.406737	-.913545	1.875	-.406737	-.913545	.0001
GW	413	1	1.875	-.406737	-.913545	1.667	-.406737	-.913545	.0001
GW	414	1	1.667	-.406737	-.913545	1.458	-.406737	-.913545	.0001
GW	415	1	1.458	-.406737	-.913545	1.25	-.406737	-.913545	.0001
GW	416	1	1.25	-.406737	-.913545	1.042	-.406737	-.913545	.0001
GW	417	1	1.042	-.406737	-.913545	.833333	-.406737	-.913545	.0001
GW	418	1	.833333	-.406737	-.913545	.625	-.406737	-.913545	.0001
GW	419	1	.625	-.406737	-.913545	.416667	-.406737	-.913545	.0001
GW	420	1	.416667	-.406737	-.913545	.208333	-.406737	-.913545	.0001
GW	421	1	.208333	-.406737	-.913545	0	-.406737	-.913545	.0001
GW	422	1	0	-.406737	-.913545	-.208333	-.406737	-.913545	.0001
GW	423	1	-.208333	-.406737	-.913545	-.416667	-.406737	-.913545	.0001
GW	424	1	-.416667	-.406737	-.913545	-.625	-.406737	-.913545	.0001
GW	425	1	-.625	-.406737	-.913545	-.833333	-.406737	-.913545	.0001
GW	426	1	-.833333	-.406737	-.913545	-1.042	-.406737	-.913545	.0001
GW	427	1	-1.042	-.406737	-.913545	-1.25	-.406737	-.913545	.0001
GW	428	1	-1.25	-.406737	-.913545	-1.458	-.406737	-.913545	.0001
GW	429	1	-1.458	-.406737	-.913545	-1.667	-.406737	-.913545	.0001
GW	430	1	-1.667	-.406737	-.913545	-1.875	-.406737	-.913545	.0001
GW	431	1	-1.875	-.406737	-.913545	-2.083	-.406737	-.913545	.0001
GW	432	1	-2.083	-.406737	-.913545	-2.292	-.406737	-.913545	.0001
GW	433	1	-2.292	-.406737	-.913545	-2.5	-.406737	-.913545	.0001
GW	434	1	2.5	-.587785	-.809017	2.292	-.587785	-.809017	.0001
GW	435	1	2.292	-.587785	-.809017	2.083	-.587785	-.809017	.0001
GW	436	1	2.083	-.587785	-.809017	1.875	-.587785	-.809017	.0001
GW	437	1	1.875	-.587785	-.809017	1.667	-.587785	-.809017	.0001
GW	438	1	1.667	-.587785	-.809017	1.458	-.587785	-.809017	.0001
GW	439	1	1.458	-.587785	-.809017	1.25	-.587785	-.809017	.0001
GW	440	1	1.25	-.587785	-.809017	1.042	-.587785	-.809017	.0001
GW	441	1	1.042	-.587785	-.809017	.833333	-.587785	-.809017	.0001
GW	442	1	.833333	-.587785	-.809017	.625	-.587785	-.809017	.0001
GW	443	1	.625	-.587785	-.809017	.416667	-.587785	-.809017	.0001
GW	444	1	.416667	-.587785	-.809017	.208333	-.587785	-.809017	.0001
GW	445	1	.208333	-.587785	-.809017	0	-.587785	-.809017	.0001
GW	446	1	0	-.587785	-.809017	-.208333	-.587785	-.809017	.0001
GW	447	1	-.208333	-.587785	-.809017	-.416667	-.587785	-.809017	.0001
GW	448	1	-.416667	-.587785	-.809017	-.625	-.587785	-.809017	.0001
GW	449	1	-.625	-.587785	-.809017	-.833333	-.587785	-.809017	.0001
GW	450	1	-.833333	-.587785	-.809017	-1.042	-.587785	-.809017	.0001
GW	451	1	-1.042	-.587785	-.809017	-1.25	-.587785	-.809017	.0001
GW	452	1	-1.25	-.587785	-.809017	-1.458	-.587785	-.809017	.0001
GW	453	1	-1.458	-.587785	-.809017	-1.667	-.587785	-.809017	.0001
GW	454	1	-1.667	-.587785	-.809017	-1.875	-.587785	-.809017	.0001
GW	455	1	-1.875	-.587785	-.809017	-2.083	-.587785	-.809017	.0001
GW	456	1	-2.083	-.587785	-.809017	-2.292	-.587785	-.809017	.0001
GW	457	1	-2.292	-.587785	-.809017	-2.5	-.587785	-.809017	.0001
GW	458	1	2.5	-.743145	-.669131	2.292	-.743145	-.669131	.0001
GW	459	1	2.292	-.743145	-.669131	2.083	-.743145	-.669131	.0001
GW	460	1	2.083	-.743145	-.669131	1.875	-.743145	-.669131	.0001
GW	461	1	1.875	-.743145	-.669131	1.667	-.743145	-.669131	.0001
GW	462	1	1.667	-.743145	-.669131	1.458	-.743145	-.669131	.0001
GW	463	1	1.458	-.743145	-.669131	1.25	-.743145	-.669131	.0001
GW	464	1	1.25	-.743145	-.669131	1.042	-.743145	-.669131	.0001
GW	465	1	1.042	-.743145	-.669131	.833333	-.743145	-.669131	.0001
GW	466	1	.833333	-.743145	-.669131	.625	-.743145	-.669131	.0001
GW	467	1	.625	-.743145	-.669131	.416667	-.743145	-.669131	.0001
GW	468	1	.416667	-.743145	-.669131	.208333	-.743145	-.669131	.0001
GW	469	1	.208333	-.743145	-.669131	0	-.743145	-.669131	.0001
GW	470	1	0	-.743145	-.669131	-.208333	-.743145	-.669131	.0001
GW	471	1	-.208333	-.743145	-.669131	-.416667	-.743145	-.669131	.0001
GW	472	1	-.416667	-.743145	-.669131	-.625	-.743145	-.669131	.0001
GW	473	1	-.625	-.743145	-.669131	-.833333	-.743145	-.669131	.0001
GW	474	1	-.833333	-.743145	-.669131	-1.042	-.743145	-.669131	.0001
GW	475	1	-1.042	-.743145	-.669131	-1.25	-.743145	-.669131	.0001
GW	476	1	-1.25	-.743145	-.669131	-1.458	-.743145	-.669131	.0001
GW	477	1	-1.458	-.743145	-.669131	-1.667	-.743145	-.669131	.0001
GW	478	1	-1.667	-.743145	-.669131	-1.875	-.743145	-.669131	.0001
GW	479	1	-1.875	-.743145	-.669131	-2.083	-.743145	-.669131	.0001
GW	480	1	-2.083	-.743145	-.669131	-2.292	-.743145	-.669131	.0001
GW	481	1	-2.292	-.743145	-.669131	-2.5	-.743145	-.669131	.0001
GW	482	1	2.5	-.866025	-.5	2.292	-.866025	-.5	.0001
GW	483	1	2.292	-.866025	-.5	2.083	-.866025	-.5	.0001
GW	484	1	2.083	-.866025	-.5	1.875	-.866025	-.5	.0001
GW	485	1	1.875	-.866025	-.5	1.667	-.866025	-.5	.0001
GW	486	1	1.667	-.866025	-.5	1.458	-.866025	-.5	.0001
GW	487	1	1.458	-.866025	-.5	1.25	-.866025	-.5	.0001
GW	488	1	1.25	-.866025	-.5	1.042	-.866025	-.5	.0001
GW	489	1	1.042	-.866025	-.5	.833333	-.866025	-.5	.0001
GW	490	1	.833333	-.866025	-.5	.625	-.866025	-.5	.0001
GW	491	1	.625	-.866025	-.5	.416667	-.866025	-.5	.0001
GW	492	1	.416667	-.866025	-.5	.208333	-.866025	-.5	.0001
GW	493	1	.208333	-.866025	-.5	0	-.866025	-.5	.0001
GW	494	1	0	-.866025	-.5	-.208333	-.866025	-.5	.0001
GW	495	1	-.208333	-.866025	-.5	-.416667	-.866025	-.5	.0001
GW	496	1	-.416667	-.866025	-.5	-.625	-.866025	-.5	.0001
GW	497	1	-.625	-.866025	-.5	-.833333	-.866025	-.5	.0001
GW	498	1	-.833333	-.866025	-.5	-1.042	-.866025	-.5	.0001
GW	499	1	-1.042	-.866025	-.5	-1.25	-.866025	-.5	.0001
GW	500	1	-1.25	-.866025	-.5	-1.458	-.866025	-.5	.0001