CM 
CE
SY len=1.2295	'Symbol: Length for WL/2
GW	1	19	0	-len/2	1.1	0	len/2	1.1	.0001
GE	1
LD	5	0	0	0	58000000
GN	1
EK
EX	0	1	10	0	1	0	0	'Voltage source (1+j0) at wire 1 segment 5.
FR	0	0	0	0	122	0
EN
